
     RDKit          3D

 22 24  0  0  0  0  0  0  0  0999 V2000
   13.9560   -1.7520   21.3210 Cl  0  0  0  0  0  0  0  0  0  0  0  0
   12.7150   -0.9140   22.2000 C   0  0  0  0  0  0  0  0  0  0  0  0
   13.0670    0.1170   23.0420 C   0  0  0  0  0  0  0  0  0  0  0  0
   12.0730    0.7340   23.7810 C   0  0  0  0  0  0  0  0  0  0  0  0
   10.7540    0.3310   23.6530 C   0  0  0  0  0  0  0  0  0  0  0  0
   11.4060   -1.3130   22.0440 C   0  0  0  0  0  0  0  0  0  0  0  0
   10.4050   -0.6860   22.7770 C   0  0  0  0  0  0  0  0  0  0  0  0
    8.9620   -1.0810   22.5850 C   0  0  0  0  0  0  0  0  0  0  0  0
    8.3460   -0.3060   21.4360 C   0  0  0  0  0  0  0  0  0  0  0  0
    8.8810    0.7240   21.0340 O   0  0  0  0  0  0  0  0  0  0  0  0
    7.1920   -0.7530   20.8920 N   0  0  0  0  0  0  0  0  0  0  0  0
    6.5830   -1.9930   21.3760 C   0  0  0  0  0  0  0  0  0  0  0  0
    6.5430   -0.0840   19.8150 C   0  0  0  0  0  0  0  0  0  0  0  0
    5.4240    0.7290   20.1040 C   0  0  0  0  0  0  0  0  0  0  0  0
    4.8990    0.9190   21.4050 C   0  0  0  0  0  0  0  0  0  0  0  0
    3.7910    1.6900   21.6070 C   0  0  0  0  0  0  0  0  0  0  0  0
    3.1620    2.3180   20.5380 C   0  0  0  0  0  0  0  0  0  0  0  0
    3.6410    2.1790   19.2680 C   0  0  0  0  0  0  0  0  0  0  0  0
    4.7830    1.3770   19.0170 C   0  0  0  0  0  0  0  0  0  0  0  0
    5.3150    1.1650   17.7220 C   0  0  0  0  0  0  0  0  0  0  0  0
    6.3740    0.3990   17.4660 N   0  0  0  0  0  0  0  0  0  0  0  0
    6.9670   -0.2030   18.5000 C   0  0  0  0  0  0  0  0  0  0  0  0
  2  1  1  0
  3  2  2  0
  4  3  1  0
  5  4  2  0
  6  2  1  0
  7  5  1  0
  7  6  2  0
  8  7  1  0
  9  8  1  0
 10  9  2  0
 11  9  1  0
 12 11  1  0
 13 11  1  0
 14 13  1  0
 15 14  2  0
 16 15  1  0
 17 16  2  0
 18 17  1  0
 19 18  2  0
 19 14  1  0
 20 19  1  0
 21 20  2  0
 22 21  1  0
 22 13  2  0
M  END
