
     RDKit          3D

 26 28  0  0  0  0  0  0  0  0999 V2000
    6.2170   -1.8500   20.7860 N   0  0  0  0  0  0  0  0  0  0  0  0
    7.0100   -2.3090   18.5420 C   0  0  0  0  0  0  0  0  0  0  0  0
    5.5880   -3.8050   19.7520 O   0  0  0  0  0  0  0  0  0  0  0  0
    6.1960   -2.7380   19.7420 C   0  0  0  0  0  0  0  0  0  0  0  0
    5.7150   -1.1080   22.9200 N   0  0  0  0  0  0  0  0  0  0  0  0
    5.4000    1.2850   26.7920 O   0  0  0  0  0  0  0  0  0  0  0  0
    5.5990    0.8710   25.4370 S   0  0  0  0  0  0  0  0  0  0  0  0
    5.6250   -2.0460   22.0190 C   0  0  0  0  0  0  0  0  0  0  0  0
    4.7280    1.8610   24.5080 N   0  0  0  0  0  0  0  0  0  0  0  0
    6.9220    0.8450   24.8900 O   0  0  0  0  0  0  0  0  0  0  0  0
    5.0360   -1.4970   24.0670 C   0  0  0  0  0  0  0  0  0  0  0  0
    4.9170   -0.7580   25.2560 C   0  0  0  0  0  0  0  0  0  0  0  0
    4.2170   -1.2730   26.3410 C   0  0  0  0  0  0  0  0  0  0  0  0
    3.6100   -2.5190   26.2500 C   0  0  0  0  0  0  0  0  0  0  0  0
    3.7040   -3.2700   25.0870 C   0  0  0  0  0  0  0  0  0  0  0  0
    4.4240   -2.7560   24.0130 C   0  0  0  0  0  0  0  0  0  0  0  0
    3.2990    2.0190   24.7970 C   0  0  0  0  0  0  0  0  0  0  0  0
    2.6690    3.1190   23.9750 C   0  0  0  0  0  0  0  0  0  0  0  0
    1.1930    3.2590   24.2620 C   0  0  0  0  0  0  0  0  0  0  0  0
    0.7380    4.1330   25.2410 C   0  0  0  0  0  0  0  0  0  0  0  0
   -0.6160    4.2350   25.5290 C   0  0  0  0  0  0  0  0  0  0  0  0
   -1.5310    3.4610   24.8420 C   0  0  0  0  0  0  0  0  0  0  0  0
   -1.0940    2.5940   23.8610 C   0  0  0  0  0  0  0  0  0  0  0  0
    0.2600    2.4950   23.5690 C   0  0  0  0  0  0  0  0  0  0  0  0
    4.7270   -3.4860   22.4580 S   0  0  0  0  0  0  0  0  0  0  0  0
    8.3720   -3.4170   18.8010 S   0  0  0  0  0  0  0  0  0  0  0  0
  4  3  1  0
  4  2  1  0
  4  1  1  0
  7  6  1  0
  8  1  1  0
  8  5  1  0
  9  7  1  0
 10  7  1  0
 11  5  1  0
 12 11  1  0
 12  7  1  0
 13 12  1  0
 14 13  1  0
 15 14  1  0
 16 15  1  0
 16 11  1  0
 17  9  1  0
 18 17  1  0
 19 18  1  0
 20 19  1  0
 21 20  1  0
 22 21  1  0
 23 22  1  0
 24 23  1  0
 24 19  1  0
 25 16  1  0
 25  8  1  0
  2 26  1  0
M  END
