
     RDKit          3D

 32 35  0  0  0  0  0  0  0  0999 V2000
    6.4460   -0.1690   24.8340 O   0  0  0  0  0  0  0  0  0  0  0  0
    7.3150   -0.9540   25.1820 C   0  0  0  0  0  0  0  0  0  0  0  0
    8.2620   -1.3950   24.3720 N   0  0  0  0  0  0  0  0  0  0  0  0
    7.3690   -1.4770   26.5990 C   0  0  0  0  0  0  0  0  0  0  0  0
    6.0070   -2.3370   28.4630 N   0  0  0  0  0  0  0  0  0  0  0  0
    5.8710   -4.5210   19.6860 O   0  0  0  0  0  0  0  0  0  0  0  0
    6.8010   -3.8000   20.0190 C   0  0  0  0  0  0  0  0  0  0  0  0
    6.5960   -2.3140   20.1070 C   0  0  2  0  0  0  0  0  0  0  0  0
    6.4560   -1.8450   18.6620 C   0  0  0  0  0  0  0  0  0  0  0  0
    5.5970   -0.6190   18.4850 C   0  0  0  0  0  0  0  0  0  0  0  0
    5.5480    0.1360   17.3750 N   0  0  0  0  0  0  0  0  0  0  0  0
    4.6650    1.1270   17.5820 C   0  0  0  0  0  0  0  0  0  0  0  0
    4.1630    1.0020   18.8240 N   0  0  0  0  0  0  0  0  0  0  0  0
    4.7210   -0.0790   19.3870 C   0  0  0  0  0  0  0  0  0  0  0  0
    7.7620   -1.6380   20.7290 N   0  0  0  0  0  0  0  0  0  0  0  0
    8.0690   -2.0960   22.0920 C   0  0  0  0  0  0  0  0  0  0  0  0
    8.3030   -0.8870   23.0050 C   0  0  2  0  0  0  0  0  0  0  0  0
    9.6700   -0.2200   22.8270 C   0  0  0  0  0  0  0  0  0  0  0  0
   10.8150   -1.1570   23.1940 C   0  0  1  0  0  0  0  0  0  0  0  0
   12.1540   -0.4390   23.0990 C   0  0  0  0  0  0  0  0  0  0  0  0
   13.2850   -1.4190   23.3630 C   0  0  0  0  0  0  0  0  0  0  0  0
   13.1420   -2.0270   24.7580 C   0  0  0  0  0  0  0  0  0  0  0  0
   11.7610   -2.6550   24.9410 C   0  0  0  0  0  0  0  0  0  0  0  0
   10.6320   -1.6880   24.6020 C   0  0  2  0  0  0  0  0  0  0  0  0
    9.2830   -2.3820   24.6840 C   0  0  0  0  0  0  0  0  0  0  0  0
    5.9740   -1.6050   27.2020 C   0  0  0  0  0  0  0  0  0  0  0  0
    6.7450   -3.4650   28.6250 C   0  0  0  0  0  0  0  0  0  0  0  0
    7.2540   -4.1660   27.5360 C   0  0  0  0  0  0  0  0  0  0  0  0
    8.0090   -5.3160   27.7160 C   0  0  0  0  0  0  0  0  0  0  0  0
    8.2570   -5.7840   28.9900 C   0  0  0  0  0  0  0  0  0  0  0  0
    7.7560   -5.0910   30.0730 C   0  0  0  0  0  0  0  0  0  0  0  0
    6.9990   -3.9420   29.8960 C   0  0  0  0  0  0  0  0  0  0  0  0
  2  1  1  0
  3  2  1  0
  4  2  1  0
  7  6  1  0
  8  7  1  6
  9  8  1  0
 10  9  1  0
 11 10  1  0
 12 11  1  0
 13 12  1  0
 14 13  1  0
 14 10  1  0
 15  8  1  0
 16 15  1  0
 17 16  1  6
 17  3  1  0
 18 17  1  0
 19 18  1  1
 20 19  1  0
 21 20  1  0
 22 21  1  0
 23 22  1  0
 24 19  1  0
 24 23  1  6
 25 24  1  0
 25  3  1  0
 26  4  1  0
 26  5  1  0
 27  5  1  0
 28 27  1  0
 29 28  1  0
 30 29  1  0
 31 30  1  0
 32 31  1  0
 32 27  1  0
M  END
