
     RDKit          3D

 24 27  0  0  0  0  0  0  0  0999 V2000
    7.5060   -0.9180   20.3750 N   0  0  0  0  0  0  0  0  0  0  0  0
   12.6290   -1.0590   22.1590 C   0  0  0  0  0  0  0  0  0  0  0  0
    9.6250    0.5980   24.4490 O   0  0  0  0  0  0  0  0  0  0  0  0
   13.9430   -1.7690   21.2640 Cl  0  0  0  0  0  0  0  0  0  0  0  0
   12.9000   -0.0960   23.1040 C   0  0  0  0  0  0  0  0  0  0  0  0
    6.2050    0.4770   17.2660 N   0  0  0  0  0  0  0  0  0  0  0  0
    8.7950    0.7490   21.1630 O   0  0  0  0  0  0  0  0  0  0  0  0
   11.8490    0.4290   23.8460 C   0  0  0  0  0  0  0  0  0  0  0  0
   11.8160    1.5200   24.8810 C   0  0  0  0  0  0  0  0  0  0  0  0
   10.3610    1.4810   25.3450 C   0  0  0  0  0  0  0  0  0  0  0  0
   10.5540   -0.0090   23.6350 C   0  0  0  0  0  0  0  0  0  0  0  0
   10.2810   -0.9600   22.6500 C   0  0  0  0  0  0  0  0  0  0  0  0
    8.8620   -1.3550   22.3130 C   0  0  0  0  0  0  0  0  0  0  0  0
    8.3560   -0.3930   21.2590 C   0  0  0  0  0  0  0  0  0  0  0  0
    6.5660   -0.3140   19.5290 C   0  0  0  0  0  0  0  0  0  0  0  0
    6.8240   -0.2930   18.1650 C   0  0  0  0  0  0  0  0  0  0  0  0
    5.2230    1.2430   17.6970 C   0  0  0  0  0  0  0  0  0  0  0  0
    4.8190    1.3340   19.0480 C   0  0  0  0  0  0  0  0  0  0  0  0
    3.6720    2.0540   19.4600 C   0  0  0  0  0  0  0  0  0  0  0  0
    3.2540    2.0080   20.7570 C   0  0  0  0  0  0  0  0  0  0  0  0
    3.9580    1.2830   21.7020 C   0  0  0  0  0  0  0  0  0  0  0  0
    5.0750    0.5770   21.3500 C   0  0  0  0  0  0  0  0  0  0  0  0
    5.5360    0.5600   20.0080 C   0  0  0  0  0  0  0  0  0  0  0  0
   11.3420   -1.4900   21.9180 C   0  0  0  0  0  0  0  0  0  0  0  0
  4  2  1  0
  5  2  2  0
  8  5  1  0
  9  8  1  0
 10  3  1  0
 10  9  1  0
 11  3  1  0
 11  8  2  0
 12 11  1  0
 13 12  1  0
 14  7  2  0
 14  1  1  0
 14 13  1  0
 15  1  1  0
 16 15  1  0
 16  6  2  0
 17  6  1  0
 18 17  2  0
 19 18  1  0
 20 19  2  0
 21 20  1  0
 22 21  2  0
 23 22  1  0
 23 18  1  0
 23 15  2  0
 24 12  2  0
 24  2  1  0
M  END
