
     RDKit          3D

 18 19  0  0  0  0  0  0  0  0999 V2000
    7.4140   -0.5980   20.1380 N   0  0  0  0  0  0  0  0  0  0  0  0
    9.8280    0.5560   26.4300 C   0  0  0  0  0  0  0  0  0  0  0  0
    8.5960    0.9150   21.3680 O   0  0  0  0  0  0  0  0  0  0  0  0
   10.3070    0.1210   25.0680 C   0  0  0  0  0  0  0  0  0  0  0  0
    6.4820   -0.1610   17.9750 N   0  0  0  0  0  0  0  0  0  0  0  0
   11.6050    0.3840   24.6490 C   0  0  0  0  0  0  0  0  0  0  0  0
    5.6740    0.8260   17.4290 N   0  0  0  0  0  0  0  0  0  0  0  0
   12.0650    0.0010   23.3950 C   0  0  0  0  0  0  0  0  0  0  0  0
    5.7730    1.1630   19.5680 N   0  0  0  0  0  0  0  0  0  0  0  0
   13.4570    0.3550   22.9390 C   0  0  0  0  0  0  0  0  0  0  0  0
   11.1920   -0.6690   22.5530 C   0  0  0  0  0  0  0  0  0  0  0  0
    9.8740   -0.9110   22.9180 C   0  0  2  0  0  0  0  0  0  0  0  0
    8.8800   -1.4120   21.8960 C   0  0  0  0  0  0  0  0  0  0  0  0
    8.2460   -0.2450   21.1640 C   0  0  2  0  0  0  0  0  0  0  0  0
    6.5580    0.0460   19.2790 C   0  0  2  0  0  0  0  0  0  0  0  0
    5.2720    1.5890   18.4020 C   0  0  0  0  0  0  0  0  0  0  0  0
    5.4590    1.7300   20.8770 C   0  0  0  0  0  0  0  0  0  0  0  0
    9.4550   -0.5310   24.1870 C   0  0  0  0  0  0  0  0  0  0  0  0
  4  2  1  0
  6  4  1  0
  7  5  1  0
  8  6  1  0
 10  8  1  0
 11  8  1  0
 12 11  1  0
 12 13  1  6
 14  3  1  6
 14  1  1  0
 14 13  1  0
 15  9  1  0
 15  5  1  0
 15  1  1  6
 16  9  1  0
 16  7  1  0
 17  9  1  0
 18 12  1  0
 18  4  1  0
M  END
$$$$
