
     RDKit          3D

 17 18  0  0  0  0  0  0  0  0999 V2000
    9.0660   -0.9970   22.3710 N   0  0  0  0  0  0  0  0  0  0  0  0
   12.7020   -0.8320   22.4570 C   0  0  0  0  0  0  0  0  0  0  0  0
    9.0730    0.7820   20.9440 O   0  0  0  0  0  0  0  0  0  0  0  0
   14.0450   -1.4280   21.5270 Cl  0  0  0  0  0  0  0  0  0  0  0  0
   12.9350    0.0790   23.4670 C   0  0  0  0  0  0  0  0  0  0  0  0
    7.3360   -0.6950   20.8980 N   0  0  0  0  0  0  0  0  0  0  0  0
   11.8650    0.4960   24.2470 C   0  0  0  0  0  0  0  0  0  0  0  0
    6.3930    0.6240   17.5900 N   0  0  0  0  0  0  0  0  0  0  0  0
   10.5820    0.0460   23.9770 C   0  0  0  0  0  0  0  0  0  0  0  0
   10.3600   -0.8120   22.9060 C   0  0  2  0  0  0  0  0  0  0  0  0
    8.5320   -0.2300   21.3720 C   0  0  0  0  0  0  0  0  0  0  0  0
    6.5610   -0.0700   19.8890 C   0  0  1  0  0  0  0  0  0  0  0  0
    5.4210    0.6630   20.1970 C   0  0  0  0  0  0  0  0  0  0  0  0
    4.7870    1.3870   19.1980 C   0  0  0  0  0  0  0  0  0  0  0  0
    5.3090    1.3410   17.9200 C   0  0  0  0  0  0  0  0  0  0  0  0
    6.9950   -0.0670   18.5640 C   0  0  0  0  0  0  0  0  0  0  0  0
   11.4350   -1.2950   22.1660 C   0  0  0  0  0  0  0  0  0  0  0  0
  4  2  1  0
  5  2  1  0
  7  5  1  0
  9  7  1  0
 10  9  1  0
 10  1  1  6
 11  6  1  0
 11  3  1  0
 11  1  1  0
 12  6  1  1
 13 12  1  0
 14 13  1  0
 15 14  1  0
 15  8  1  0
 16 12  1  0
 16  8  1  0
 17 10  1  0
 17  2  1  0
M  END
$$$$
