
     RDKit          3D

 13 13  0  0  0  0  0  0  0  0999 V2000
    0.4500    8.3510   -8.4610 N   0  0  0  0  0  0  0  0  0  0  0  0
    0.5680    9.6270   -7.8640 C   0  0  1  0  0  0  0  0  0  0  0  0
   -0.8110   10.0750   -7.2740 C   0  0  0  0  0  0  0  0  0  0  0  0
   -1.8780   10.4060   -8.3660 C   0  0  2  0  0  0  0  0  0  0  0  0
   -1.5210   11.5540   -9.3570 C   0  0  0  0  0  0  0  0  0  0  0  0
   -2.8350   12.1230   -9.8120 C   0  0  0  0  0  0  0  0  0  0  0  0
   -3.7420   11.7950   -8.6840 N   0  0  0  0  0  0  0  0  0  0  0  0
   -3.2210   10.7930   -7.8080 C   0  0  0  0  0  0  0  0  0  0  0  0
   -3.6980   10.2940   -6.8050 O   0  0  0  0  0  0  0  0  0  0  0  0
    1.7190    9.4790   -6.7890 C   0  0  1  0  0  0  0  0  0  0  0  0
    2.7170    8.8020   -7.4690 O   0  0  0  0  0  0  0  0  0  0  0  0
    2.3530   10.8410   -6.5520 C   0  0  0  0  0  0  0  0  0  0  0  0
    1.6560   11.7050   -6.0340 O   0  0  0  0  0  0  0  0  0  0  0  0
  2  1  1  1
  3  2  1  0
  4  3  1  1
  5  4  1  0
  6  5  1  0
  7  6  1  0
  8  4  1  0
  8  7  1  0
  9  8  1  0
 10  2  1  0
 10 11  1  6
 12 10  1  0
 13 12  1  0
M  END
