
     RDKit          3D

 29 32  0  0  0  0  0  0  0  0999 V2000
    9.2350    0.9780   21.1350 O   0  0  0  0  0  0  0  0  0  0  0  0
    8.8740   -0.0590   21.6750 C   0  0  0  0  0  0  0  0  0  0  0  0
    7.8700   -0.9670   20.9900 C   0  0  0  0  0  0  0  0  0  0  0  0
    7.0140   -0.2350   19.9750 C   0  0  0  0  0  0  0  0  0  0  0  0
    5.8750    0.5130   20.3820 C   0  0  0  0  0  0  0  0  0  0  0  0
    5.4660    0.6340   21.7350 C   0  0  0  0  0  0  0  0  0  0  0  0
    4.3810    1.3910   22.0760 C   0  0  0  0  0  0  0  0  0  0  0  0
    3.6560    2.0660   21.1070 C   0  0  0  0  0  0  0  0  0  0  0  0
    4.0010    1.9710   19.7890 C   0  0  0  0  0  0  0  0  0  0  0  0
    5.1140    1.1900   19.3910 C   0  0  0  0  0  0  0  0  0  0  0  0
    5.5320    1.0570   18.0470 C   0  0  0  0  0  0  0  0  0  0  0  0
    6.5980    0.3610   17.6680 N   0  0  0  0  0  0  0  0  0  0  0  0
    7.3070   -0.2550   18.6250 C   0  0  0  0  0  0  0  0  0  0  0  0
    9.3640   -0.4440   22.8920 N   0  0  0  0  0  0  0  0  0  0  0  0
   10.3890    0.3930   23.5110 C   0  0  0  0  0  0  0  0  0  0  0  0
   11.7900   -0.0170   23.1400 C   0  0  0  0  0  0  0  0  0  0  0  0
   12.0470   -0.9340   22.1600 C   0  0  0  0  0  0  0  0  0  0  0  0
   13.7100   -1.2700   22.0010 S   0  0  0  0  0  0  0  0  0  0  0  0
   14.1050   -0.1560   23.2600 C   0  0  0  0  0  0  0  0  0  0  0  0
   12.9850    0.4320   23.7670 C   0  0  0  0  0  0  0  0  0  0  0  0
    8.9420   -1.6220   23.5970 C   0  0  0  0  0  0  0  0  0  0  0  0
    8.0640   -1.5110   24.6720 C   0  0  0  0  0  0  0  0  0  0  0  0
    7.7880   -2.6070   25.4710 C   0  0  0  0  0  0  0  0  0  0  0  0
    9.5080   -2.8620   23.3080 C   0  0  0  0  0  0  0  0  0  0  0  0
    9.2260   -3.9640   24.0990 C   0  0  0  0  0  0  0  0  0  0  0  0
    8.3720   -3.8560   25.2100 C   0  0  0  0  0  0  0  0  0  0  0  0
    8.1490   -4.9410   26.0450 N   0  0  0  0  0  0  0  0  0  0  0  0
    9.1850   -5.9470   26.2310 C   0  0  0  0  0  0  0  0  0  0  0  0
    7.2840   -4.8220   27.2120 C   0  0  0  0  0  0  0  0  0  0  0  0
  2  1  2  0
  3  2  1  0
  4  3  1  0
  5  4  1  0
  6  5  2  0
  7  6  1  0
  8  7  2  0
  9  8  1  0
 10  9  2  0
 10  5  1  0
 11 10  1  0
 12 11  2  0
 13 12  1  0
 13  4  2  0
 14  2  1  0
 15 14  1  0
 16 15  1  0
 17 16  2  0
 18 17  1  0
 19 18  1  0
 20 19  2  0
 20 16  1  0
 21 14  1  0
 22 21  2  0
 23 22  1  0
 24 21  1  0
 25 24  2  0
 26 25  1  0
 26 23  2  0
 27 26  1  0
 28 27  1  0
 29 27  1  0
M  END
