
     RDKit          3D

 27 29  0  0  0  0  0  0  0  0999 V2000
    7.5170   -1.5130   21.5240 N   0  0  0  0  0  0  0  0  0  0  0  0
   11.4320    0.5600   23.1470 C   0  0  0  0  0  0  0  0  0  0  0  0
    5.9240   -0.4750   20.0710 C   0  0  0  0  0  0  0  0  0  0  0  0
    4.2940    0.2990   21.8070 C   0  0  0  0  0  0  0  0  0  0  0  0
    9.9010   -1.0610   22.2980 O   0  0  0  0  0  0  0  0  0  0  0  0
   10.1220   -3.1880   23.5150 C   0  0  0  0  0  0  0  0  0  0  0  0
    6.6400    1.0650   16.9300 O   0  0  0  0  0  0  0  0  0  0  0  0
   12.7160    1.0880   23.2050 C   0  0  0  0  0  0  0  0  0  0  0  0
   11.2090   -0.6710   22.4870 C   0  0  0  0  0  0  0  0  0  0  0  0
    2.7230    2.0490   21.2560 C   0  0  0  0  0  0  0  0  0  0  0  0
   12.2750   -1.3380   21.8980 C   0  0  0  0  0  0  0  0  0  0  0  0
   13.5410   -0.7740   21.9280 C   0  0  0  0  0  0  0  0  0  0  0  0
    6.0480    0.7630   17.9650 C   0  0  0  0  0  0  0  0  0  0  0  0
    6.3560   -1.6400   20.8840 C   0  0  0  0  0  0  0  0  0  0  0  0
    3.2320    1.1100   22.1140 C   0  0  0  0  0  0  0  0  0  0  0  0
    2.6130    0.9210   23.3100 F   0  0  0  0  0  0  0  0  0  0  0  0
    7.9600   -2.4780   22.5240 C   0  0  0  0  0  0  0  0  0  0  0  0
    6.4730   -0.2760   18.8420 C   0  0  0  0  0  0  0  0  0  0  0  0
    4.8590    0.4020   20.5370 C   0  0  0  0  0  0  0  0  0  0  0  0
    4.3820    1.3790   19.6450 C   0  0  0  0  0  0  0  0  0  0  0  0
   10.4390    2.5400   24.0640 C   0  0  0  0  0  0  0  0  0  0  0  0
    4.9910    1.5200   18.4000 N   0  0  0  0  0  0  0  0  0  0  0  0
   10.3080    1.1970   23.6010 O   0  0  0  0  0  0  0  0  0  0  0  0
    5.6480   -2.6370   20.9930 O   0  0  0  0  0  0  0  0  0  0  0  0
    9.2610   -1.9860   23.2240 C   0  0  2  0  0  0  0  0  0  0  0  0
   13.7590    0.4260   22.5770 C   0  0  0  0  0  0  0  0  0  0  0  0
    3.3130    2.1920   20.0120 C   0  0  0  0  0  0  0  0  0  0  0  0
  8  2  2  0
  9  5  1  0
  9  2  1  0
 11  9  2  0
 12 11  1  0
 13  7  2  0
 14  3  1  0
 14  1  1  0
 15 10  1  0
 15  4  2  0
 16 15  1  0
 17  1  1  0
 18 13  1  0
 18  3  2  0
 19  4  1  0
 19  3  1  0
 20 19  2  0
 22 20  1  0
 22 13  1  0
 23 21  1  0
 23  2  1  0
 24 14  2  0
 25 17  1  0
 25  6  1  6
 25  5  1  0
 26 12  2  0
 26  8  1  0
 27 20  1  0
 27 10  2  0
M  END
