
     RDKit          3D

 16 17  0  0  0  0  0  0  0  0999 V2000
    7.2050   -0.7200   20.6940 N   0  0  0  0  0  0  0  0  0  0  0  0
   12.1270    0.1930   23.6850 C   0  0  0  0  0  0  0  0  0  0  0  0
    9.0320    0.5870   21.0710 O   0  0  0  0  0  0  0  0  0  0  0  0
   13.7910    0.6040   23.7210 Cl  0  0  0  0  0  0  0  0  0  0  0  0
   11.1850    0.5470   24.5870 C   0  0  0  0  0  0  0  0  0  0  0  0
    6.5650    0.8340   17.4140 N   0  0  0  0  0  0  0  0  0  0  0  0
    9.9290    0.0220   24.2530 C   0  0  0  0  0  0  0  0  0  0  0  0
    9.9320   -0.7160   23.0890 C   0  0  0  0  0  0  0  0  0  0  0  0
    8.7540   -1.3680   22.4300 C   0  0  0  0  0  0  0  0  0  0  0  0
    8.3540   -0.4060   21.3320 C   0  0  0  0  0  0  0  0  0  0  0  0
    6.5610    0.0160   19.6770 C   0  0  0  0  0  0  0  0  0  0  0  0
    5.3100    0.5900   19.8850 C   0  0  0  0  0  0  0  0  0  0  0  0
    4.7020    1.2850   18.8530 C   0  0  0  0  0  0  0  0  0  0  0  0
    5.3610    1.3730   17.6410 C   0  0  0  0  0  0  0  0  0  0  0  0
    7.1470    0.1760   18.4230 C   0  0  0  0  0  0  0  0  0  0  0  0
   11.5190   -0.7790   22.4080 S   0  0  0  0  0  0  0  0  0  0  0  0
  4  2  1  0
  5  2  2  0
  7  5  1  0
  8  7  2  0
  9  8  1  0
 10  3  2  0
 10  1  1  0
 10  9  1  0
 11  1  1  0
 12 11  1  0
 13 12  2  0
 14 13  1  0
 14  6  2  0
 15 11  2  0
 15  6  1  0
 16  8  1  0
 16  2  1  0
M  END
