
     RDKit          3D

  9  9  0  0  0  0  0  0  0  0999 V2000
   29.0440   54.8380   -6.5470 C   0  0  0  0  0  0  0  0  0  0  0  0
   28.9520   53.3580   -6.1910 C   0  0  0  0  0  0  0  0  0  0  0  0
   29.3980   52.9400   -5.0310 N   0  0  0  0  0  0  0  0  0  0  0  0
   29.3450   51.6740   -4.6950 C   0  0  0  0  0  0  0  0  0  0  0  0
   29.8180   51.2400   -3.4060 N   0  0  0  0  0  0  0  0  0  0  0  0
   28.8340   50.7340   -5.5620 C   0  0  0  0  0  0  0  0  0  0  0  0
   28.3340   51.1310   -6.7760 C   0  0  0  0  0  0  0  0  0  0  0  0
   28.4110   52.4710   -7.1160 C   0  0  0  0  0  0  0  0  0  0  0  0
   27.7210   53.0310   -8.8200 Br  0  0  0  0  0  0  0  0  0  0  0  0
  2  1  1  0
  3  2  1  0
  4  3  1  0
  5  4  1  0
  6  4  1  0
  7  6  1  0
  8  7  1  0
  8  2  1  0
  9  8  1  0
M  END
$$$$
