
     RDKit          3D

 37 39  0  0  0  0  0  0  0  0999 V2000
    5.4260   -4.3930   19.5070 O   0  0  0  0  0  0  0  0  0  0  0  0
    6.2300   -4.6280   20.3830 C   0  0  0  0  0  0  0  0  0  0  0  0
    7.5810   -3.9240   20.3940 C   0  0  2  0  0  0  0  0  0  0  0  0
    8.5370   -4.7020   21.1030 O   0  0  0  0  0  0  0  0  0  0  0  0
    7.4690   -2.5260   21.0330 C   0  0  2  0  0  0  0  0  0  0  0  0
    6.5380   -1.6010   20.2540 C   0  0  0  0  0  0  0  0  0  0  0  0
    6.1580   -0.3870   21.0870 C   0  0  2  0  0  0  0  0  0  0  0  0
    5.2610   -0.6110   22.3100 C   0  0  0  0  0  0  0  0  0  0  0  0
    4.6680    0.7650   22.0150 C   0  0  0  0  0  0  0  0  0  0  0  0
    5.0550    0.5360   20.5560 C   0  0  0  0  0  0  0  0  0  0  0  0
    8.7800   -1.8820   21.2080 N   0  0  0  0  0  0  0  0  0  0  0  0
    9.2530   -1.5600   22.4150 C   0  0  0  0  0  0  0  0  0  0  0  0
   10.6030   -0.8560   22.4380 C   0  0  2  0  0  0  0  0  0  0  0  0
   11.5890   -1.6540   23.2700 C   0  0  2  0  0  0  0  0  0  0  0  0
   11.9180   -0.8560   24.5150 C   0  0  1  0  0  0  0  0  0  0  0  0
   12.9910   -1.1380   23.4980 C   0  0  1  0  0  0  0  0  0  0  0  0
   14.0380   -2.1770   23.8350 C   0  0  0  0  0  0  0  0  0  0  0  0
   13.5440    0.0100   22.6800 C   0  0  0  0  0  0  0  0  0  0  0  0
   11.1530    0.4510   24.4550 C   0  0  0  0  0  0  0  0  0  0  0  0
   10.5000    0.4250   23.1380 N   0  0  0  0  0  0  0  0  0  0  0  0
    9.8180    1.4390   22.5780 C   0  0  0  0  0  0  0  0  0  0  0  0
    9.6270    2.7050   23.4120 C   0  0  2  0  0  0  0  0  0  0  0  0
    8.1580    3.0380   23.7270 C   0  0  2  0  0  0  0  0  0  0  0  0
    7.3960    3.4380   22.4590 C   0  0  0  0  0  0  0  0  0  0  0  0
    8.0860    4.1970   24.7230 C   0  0  0  0  0  0  0  0  0  0  0  0
    7.4700    1.8190   24.3470 C   0  0  0  0  0  0  0  0  0  0  0  0
   10.3070    3.8010   22.7440 N   0  0  0  0  0  0  0  0  0  0  0  0
   11.3340    4.4500   23.3260 C   0  0  0  0  0  0  0  0  0  0  0  0
   12.1020    5.1760   22.4810 N   0  0  0  0  0  0  0  0  0  0  0  0
   13.3290    5.9210   22.8310 C   0  0  1  0  0  0  0  0  0  0  0  0
   13.9600    6.4480   21.5500 C   0  0  0  0  0  0  0  0  0  0  0  0
   12.9610    7.0850   23.7400 C   0  0  0  0  0  0  0  0  0  0  0  0
   14.2990    4.9850   23.5380 C   0  0  0  0  0  0  0  0  0  0  0  0
   11.5260    4.3700   24.5540 O   0  0  0  0  0  0  0  0  0  0  0  0
    9.3940    1.3540   21.4300 O   0  0  0  0  0  0  0  0  0  0  0  0
    8.6470   -1.7900   23.4610 O   0  0  0  0  0  0  0  0  0  0  0  0
    5.9030   -5.6150   21.4300 N   0  0  0  0  0  0  0  0  0  0  0  0
  2  1  2  0
  3  2  1  0
  3  4  1  1
  5  3  1  0
  5  6  1  6
  7  6  1  6
  8  7  1  0
  9  8  1  0
 10  9  1  0
 10  7  1  0
 11  5  1  0
 12 11  1  0
 13 12  1  1
 14 13  1  6
 15 14  1  0
 16 15  1  0
 16 14  1  0
 16 17  1  1
 18 16  1  0
 15 19  1  6
 20 13  1  0
 20 19  1  0
 21 20  1  0
 22 21  1  0
 23 22  1  0
 23 24  1  6
 25 23  1  0
 26 23  1  0
 22 27  1  6
 28 27  1  0
 29 28  1  0
 30 29  1  0
 30 31  1  6
 32 30  1  0
 33 30  1  0
 34 28  2  0
 35 21  2  0
 36 12  2  0
 37  2  1  0
M  END
$$$$
