
     RDKit          3D

 26 29  0  0  0  0  0  0  0  0999 V2000
    5.3160   -2.6490   20.8710 O   0  0  0  0  0  0  0  0  0  0  0  0
    5.8830   -1.5690   20.8600 C   0  0  0  0  0  0  0  0  0  0  0  0
    5.5790   -0.5680   19.7840 C   0  0  0  0  0  0  0  0  0  0  0  0
    4.6190    0.4660   19.9870 C   0  0  0  0  0  0  0  0  0  0  0  0
    3.9270    0.6880   21.2080 C   0  0  0  0  0  0  0  0  0  0  0  0
    2.9870    1.6720   21.3160 C   0  0  0  0  0  0  0  0  0  0  0  0
    2.6910    2.4870   20.2340 C   0  0  0  0  0  0  0  0  0  0  0  0
    3.3490    2.3360   19.0480 C   0  0  0  0  0  0  0  0  0  0  0  0
    4.3330    1.3260   18.8910 C   0  0  0  0  0  0  0  0  0  0  0  0
    5.0480    1.1170   17.6840 C   0  0  0  0  0  0  0  0  0  0  0  0
    5.9550    0.1580   17.5060 N   0  0  0  0  0  0  0  0  0  0  0  0
    6.1950   -0.6650   18.5360 C   0  0  0  0  0  0  0  0  0  0  0  0
    6.7680   -1.2100   21.8140 N   0  0  0  0  0  0  0  0  0  0  0  0
    7.3230   -2.1270   22.8120 C   0  0  0  0  0  0  0  0  0  0  0  0
    8.8360   -2.1980   22.6690 C   0  0  0  0  0  0  0  0  0  0  0  0
    7.3040    0.1440   21.9300 C   0  0  0  0  0  0  0  0  0  0  0  0
    8.8060    0.2080   21.9800 C   0  0  0  0  0  0  0  0  0  0  0  0
    9.3860    1.1750   21.5000 O   0  0  0  0  0  0  0  0  0  0  0  0
    9.4510   -0.8650   22.5270 N   0  0  0  0  0  0  0  0  0  0  0  0
   10.8260   -0.8000   22.8750 C   0  0  0  0  0  0  0  0  0  0  0  0
   11.7250   -1.5800   22.1590 C   0  0  0  0  0  0  0  0  0  0  0  0
   13.0740   -1.4060   22.3710 C   0  0  0  0  0  0  0  0  0  0  0  0
   14.1930   -2.2540   21.3500 Cl  0  0  0  0  0  0  0  0  0  0  0  0
   11.2850    0.1020   23.8350 C   0  0  0  0  0  0  0  0  0  0  0  0
   12.6490    0.2440   24.0440 C   0  0  0  0  0  0  0  0  0  0  0  0
   13.5550   -0.5080   23.3080 C   0  0  0  0  0  0  0  0  0  0  0  0
  2  1  2  0
  3  2  1  0
  4  3  1  0
  5  4  2  0
  6  5  1  0
  7  6  2  0
  8  7  1  0
  9  8  2  0
  9  4  1  0
 10  9  1  0
 11 10  2  0
 12 11  1  0
 12  3  2  0
 13  2  1  0
 14 13  1  0
 15 14  1  0
 16 13  1  0
 17 16  1  0
 18 17  2  0
 19 17  1  0
 19 15  1  0
 20 19  1  0
 21 20  2  0
 22 21  1  0
 23 22  1  0
 24 20  1  0
 25 24  2  0
 26 25  1  0
 26 22  2  0
M  END
