
     RDKit          3D

 11 12  0  0  0  0  0  0  0  0999 V2000
   29.1360   54.6160   -5.3310 O   0  0  0  0  0  0  0  0  0  0  0  0
   28.7850   53.9660   -6.2520 C   0  0  0  0  0  0  0  0  0  0  0  0
   28.2270   54.5900   -7.4530 N   0  0  0  0  0  0  0  0  0  0  0  0
   27.8090   53.7730   -8.5610 C   0  0  0  0  0  0  0  0  0  0  0  0
   27.9430   52.2830   -8.5050 C   0  0  0  0  0  0  0  0  0  0  0  0
   28.5190   51.6320   -7.2540 C   0  0  0  0  0  0  0  0  0  0  0  0
   28.6530   50.2350   -7.1950 C   0  0  0  0  0  0  0  0  0  0  0  0
   29.1870   49.6520   -6.0560 C   0  0  0  0  0  0  0  0  0  0  0  0
   29.5910   50.4430   -4.9750 C   0  0  0  0  0  0  0  0  0  0  0  0
   29.4580   51.8200   -5.0300 C   0  0  0  0  0  0  0  0  0  0  0  0
   28.9210   52.4170   -6.1830 C   0  0  0  0  0  0  0  0  0  0  0  0
  2  1  2  0
  3  2  1  0
  4  3  1  0
  5  4  2  0
  6  5  1  0
  7  6  1  0
  8  7  2  0
  9  8  1  0
 10  9  2  0
 11  6  2  0
 11  2  1  0
 11 10  1  0
M  END
