
     RDKit          3D

 23 25  0  0  0  0  0  0  0  0999 V2000
    5.4710    1.0860   17.8340 Br  0  0  0  0  0  0  0  0  0  0  0  0
    6.1650   -0.0430   19.1910 C   0  0  0  0  0  0  0  0  0  0  0  0
    6.2960   -1.3920   18.9310 C   0  0  0  0  0  0  0  0  0  0  0  0
    6.8650   -2.2020   19.9020 C   0  0  0  0  0  0  0  0  0  0  0  0
    7.2640   -3.6480   19.8850 C   0  0  2  0  0  0  0  0  0  0  0  0
    6.1590   -4.5210   19.7650 O   0  0  0  0  0  0  0  0  0  0  0  0
    7.8720   -3.8580   21.2630 C   0  0  0  0  0  0  0  0  0  0  0  0
    8.3460   -4.8900   21.6980 O   0  0  0  0  0  0  0  0  0  0  0  0
    6.5570    0.5150   20.3970 C   0  0  0  0  0  0  0  0  0  0  0  0
    7.1080   -0.2970   21.3740 C   0  0  0  0  0  0  0  0  0  0  0  0
    7.2580   -1.6560   21.1170 C   0  0  0  0  0  0  0  0  0  0  0  0
    7.8100   -2.6590   21.9280 N   0  0  0  0  0  0  0  0  0  0  0  0
    8.3230   -2.4570   23.2840 C   0  0  0  0  0  0  0  0  0  0  0  0
    9.5230   -1.5410   23.3380 C   0  0  0  0  0  0  0  0  0  0  0  0
   10.3830   -1.4170   22.2460 C   0  0  0  0  0  0  0  0  0  0  0  0
   11.4280   -0.5090   22.2630 C   0  0  0  0  0  0  0  0  0  0  0  0
   11.6460    0.2720   23.3720 C   0  0  0  0  0  0  0  0  0  0  0  0
   10.8280    0.1530   24.4840 C   0  0  0  0  0  0  0  0  0  0  0  0
    9.7660   -0.7430   24.4600 C   0  0  0  0  0  0  0  0  0  0  0  0
    8.8940   -0.9200   25.5110 O   0  0  0  0  0  0  0  0  0  0  0  0
    8.6980    0.1620   26.4410 C   0  0  0  0  0  0  0  0  0  0  0  0
    7.9460   -0.3590   27.6040 C   0  0  0  0  0  0  0  0  0  0  0  0
    8.6800   -3.4330   18.6970 S   0  0  0  0  0  0  0  0  0  0  0  0
  2  1  1  0
  3  2  2  0
  4  3  1  0
  5  4  1  0
  5  6  1  6
  7  5  1  0
  8  7  2  0
  9  2  1  0
 10  9  2  0
 11 10  1  0
 11  4  2  0
 12 11  1  0
 12  7  1  0
 13 12  1  0
 14 13  1  0
 15 14  2  0
 16 15  1  0
 17 16  2  0
 18 17  1  0
 19 18  2  0
 19 14  1  0
 20 19  1  0
 21 20  1  0
 22 21  1  0
  5 23  1  0
M  END
