
     RDKit          3D

 19 20  0  0  0  0  0  0  0  0999 V2000
    5.2980   -4.8680   26.1230 N   0  0  0  0  0  0  0  0  0  0  0  0
    6.7550   -4.9940   26.2030 C   0  0  0  0  0  0  0  0  0  0  0  0
    4.6670   -5.7450   25.5550 O   0  0  0  0  0  0  0  0  0  0  0  0
    7.2760   -5.3950   27.4270 C   0  0  0  0  0  0  0  0  0  0  0  0
    6.4140   -3.9290   19.8520 C   0  0  2  0  0  0  0  0  0  0  0  0
    7.0310   -2.8250   19.0480 C   0  0  0  0  0  0  0  0  0  0  0  0
    8.6410   -5.5340   27.5760 C   0  0  0  0  0  0  0  0  0  0  0  0
    9.4910   -5.2770   26.5170 C   0  0  0  0  0  0  0  0  0  0  0  0
    8.9830   -4.8740   25.2930 C   0  0  0  0  0  0  0  0  0  0  0  0
    7.6100   -4.7260   25.1080 C   0  0  0  0  0  0  0  0  0  0  0  0
    7.5120   -3.1050   23.1770 C   0  0  0  0  0  0  0  0  0  0  0  0
    7.9670   -3.4270   21.7700 C   0  0  0  0  0  0  0  0  0  0  0  0
    6.5660   -5.4270   21.7720 C   0  0  0  0  0  0  0  0  0  0  0  0
    6.0610   -5.0700   23.1490 C   0  0  0  0  0  0  0  0  0  0  0  0
    7.0840   -4.3190   23.8830 N   0  0  0  0  0  0  0  0  0  0  0  0
    6.9560   -4.2140   21.0550 N   0  0  0  0  0  0  0  0  0  0  0  0
    4.7700   -3.9120   26.6670 O   0  0  0  0  0  0  0  0  0  0  0  0
    5.4920   -4.5740   19.3770 O   0  0  0  0  0  0  0  0  0  0  0  0
    8.6410   -3.4160   18.4690 S   0  0  0  0  0  0  0  0  0  0  0  0
  2  1  1  0
  3  1  1  0
  4  2  1  0
  6  5  1  0
  7  4  1  0
  8  7  1  0
  9  8  1  0
 10  9  1  0
 10  2  1  0
 12 11  1  0
 14 13  1  0
 15 14  1  0
 15 11  1  0
 15 10  1  0
 16 13  1  0
 16 12  1  0
 16  5  1  0
 17  1  1  0
  5 18  1  6
  6 19  1  0
M  CHG  2   1   1   3  -1
M  END
$$$$
