
     RDKit          3D

 17 18  0  0  0  0  0  0  0  0999 V2000
    7.0550   -2.9940   21.1070 N   0  0  0  0  0  0  0  0  0  0  0  0
    7.5290   -2.6020   18.6980 C   0  0  0  0  0  0  0  0  0  0  0  0
    5.9750   -4.1890   19.5540 O   0  0  0  0  0  0  0  0  0  0  0  0
    6.8020   -3.3240   19.8220 C   0  0  0  0  0  0  0  0  0  0  0  0
    9.3680    0.4490   26.2740 C   0  0  0  0  0  0  0  0  0  0  0  0
    6.3970   -3.7270   22.1930 C   0  0  0  0  0  0  0  0  0  0  0  0
    7.3700   -4.0860   23.2940 C   0  0  0  0  0  0  0  0  0  0  0  0
    8.7770   -2.2180   22.7250 C   0  0  0  0  0  0  0  0  0  0  0  0
    7.8730   -1.8600   21.5600 C   0  0  0  0  0  0  0  0  0  0  0  0
    7.4610   -2.1720   24.8190 C   0  0  0  0  0  0  0  0  0  0  0  0
    8.3070   -1.3780   25.6770 C   0  0  0  0  0  0  0  0  0  0  0  0
    8.9370   -1.6670   26.8370 C   0  0  0  0  0  0  0  0  0  0  0  0
    9.6280   -0.4990   27.2370 C   0  0  0  0  0  0  0  0  0  0  0  0
    8.0100   -2.8680   23.7910 N   0  0  0  0  0  0  0  0  0  0  0  0
    6.2600   -2.2420   25.0690 O   0  0  0  0  0  0  0  0  0  0  0  0
    8.5550   -0.0790   25.3180 O   0  0  0  0  0  0  0  0  0  0  0  0
    9.1050   -3.3970   18.2800 S   0  0  0  0  0  0  0  0  0  0  0  0
  4  3  1  0
  4  2  1  0
  4  1  1  0
  6  1  1  0
  7  6  1  0
  9  1  1  0
  9  8  1  0
 11 10  1  0
 12 11  1  0
 13 12  1  0
 13  5  1  0
 14 10  1  0
 14  8  1  0
 14  7  1  0
 15 10  1  0
 16 11  1  0
 16  5  1  0
  2 17  1  0
M  END
$$$$
