
     RDKit          3D

 27 29  0  0  0  0  0  0  0  0999 V2000
    7.2200   -1.4830   21.4810 N   0  0  0  0  0  0  0  0  0  0  0  0
   10.4180    2.6030   24.0710 C   0  0  0  0  0  0  0  0  0  0  0  0
   10.1780    1.2290   23.7600 O   0  0  0  0  0  0  0  0  0  0  0  0
   11.2400    0.4680   23.3480 C   0  0  0  0  0  0  0  0  0  0  0  0
    4.7790    1.5440   18.2530 N   0  0  0  0  0  0  0  0  0  0  0  0
    9.5580   -1.0540   22.7250 O   0  0  0  0  0  0  0  0  0  0  0  0
   12.5710    0.8680   23.3900 C   0  0  0  0  0  0  0  0  0  0  0  0
    5.3350   -2.5830   20.9420 O   0  0  0  0  0  0  0  0  0  0  0  0
   13.5500    0.0480   22.8500 C   0  0  0  0  0  0  0  0  0  0  0  0
    6.4650    0.9960   16.8530 O   0  0  0  0  0  0  0  0  0  0  0  0
   13.2160   -1.1750   22.3010 C   0  0  0  0  0  0  0  0  0  0  0  0
    4.5030   -0.3320   22.6190 O   0  0  0  0  0  0  0  0  0  0  0  0
   11.8980   -1.6030   22.2800 C   0  0  0  0  0  0  0  0  0  0  0  0
   10.9020   -0.7790   22.7870 C   0  0  0  0  0  0  0  0  0  0  0  0
    9.1380   -2.4270   22.6770 C   0  0  0  0  0  0  0  0  0  0  0  0
    7.6510   -2.4430   22.4850 C   0  0  0  0  0  0  0  0  0  0  0  0
    6.0510   -1.5880   20.8470 C   0  0  0  0  0  0  0  0  0  0  0  0
    5.6340   -0.4110   20.0320 C   0  0  0  0  0  0  0  0  0  0  0  0
    6.2130   -0.2500   18.8160 C   0  0  0  0  0  0  0  0  0  0  0  0
    5.8400    0.7570   17.8890 C   0  0  0  0  0  0  0  0  0  0  0  0
    4.1280    1.4660   19.4780 C   0  0  0  0  0  0  0  0  0  0  0  0
    3.0970    2.3500   19.7760 C   0  0  0  0  0  0  0  0  0  0  0  0
    2.5150    2.3280   21.0290 C   0  0  0  0  0  0  0  0  0  0  0  0
    2.9590    1.4470   22.0000 C   0  0  0  0  0  0  0  0  0  0  0  0
    3.9780    0.5480   21.7110 C   0  0  0  0  0  0  0  0  0  0  0  0
    3.9250   -0.3740   23.9240 C   0  0  0  0  0  0  0  0  0  0  0  0
    4.5650    0.5170   20.4300 C   0  0  0  0  0  0  0  0  0  0  0  0
  3  2  1  0
  4  3  1  0
  7  4  2  0
  9  7  1  0
 11  9  2  0
 13 11  1  0
 14  6  1  0
 14 13  2  0
 14  4  1  0
 15  6  1  0
 16  1  1  0
 16 15  1  0
 17  8  2  0
 17  1  1  0
 18 17  1  0
 19 18  2  0
 20  5  1  0
 20 19  1  0
 20 10  2  0
 21  5  1  0
 22 21  2  0
 23 22  1  0
 24 23  2  0
 25 24  1  0
 25 12  1  0
 26 12  1  0
 27 25  2  0
 27 21  1  0
 27 18  1  0
M  END
