
     RDKit          3D

 20 21  0  0  0  0  0  0  0  0999 V2000
    6.7090    0.5050   17.6480 N   0  0  0  0  0  0  0  0  0  0  0  0
    5.0680    0.8380   21.6230 C   0  0  0  0  0  0  0  0  0  0  0  0
    9.1320    1.1120   21.1670 O   0  0  0  0  0  0  0  0  0  0  0  0
   13.9960   -1.5300   21.0020 Cl  0  0  0  0  0  0  0  0  0  0  0  0
    5.6230    0.6600   20.2330 C   0  0  1  0  0  0  0  0  0  0  0  0
    7.5730   -0.5250   21.0870 N   0  0  0  0  0  0  0  0  0  0  0  0
    4.9780    1.2240   19.1370 C   0  0  0  0  0  0  0  0  0  0  0  0
    5.5550    1.1350   17.8870 C   0  0  0  0  0  0  0  0  0  0  0  0
    7.3190   -0.0710   18.6890 C   0  0  0  0  0  0  0  0  0  0  0  0
    6.8360   -0.0110   19.9950 C   0  0  2  0  0  0  0  0  0  0  0  0
    8.6530    0.0870   21.6260 C   0  0  0  0  0  0  0  0  0  0  0  0
    9.2400   -0.5460   22.9060 C   0  0  1  0  0  0  0  0  0  0  0  0
    8.4910    0.0810   24.0960 C   0  0  0  0  0  0  0  0  0  0  0  0
    9.0030   -2.0660   22.9520 C   0  0  0  0  0  0  0  0  0  0  0  0
   10.7510   -0.2680   22.9500 C   0  0  2  0  0  0  0  0  0  0  0  0
   11.2990    0.6540   23.8390 C   0  0  0  0  0  0  0  0  0  0  0  0
   12.6510    0.9600   23.8000 C   0  0  0  0  0  0  0  0  0  0  0  0
   13.4830    0.3320   22.8870 C   0  0  0  0  0  0  0  0  0  0  0  0
   12.9400   -0.6160   22.0410 C   0  0  2  0  0  0  0  0  0  0  0  0
   11.5920   -0.9100   22.0450 C   0  0  0  0  0  0  0  0  0  0  0  0
  5  2  1  1
  7  5  1  0
  8  7  1  0
  8  1  1  0
  9  1  1  0
 10  9  1  0
 10  6  1  1
 10  5  1  0
 11  6  1  0
 11  3  1  0
 12 11  1  0
 12 13  1  1
 14 12  1  0
 15 12  1  0
 15 16  1  6
 17 16  1  0
 18 17  1  0
 19  4  1  1
 19 18  1  0
 20 15  1  0
 20 19  1  0
M  END
$$$$
