
     RDKit          3D

 21 22  0  0  0  0  0  0  0  0999 V2000
    7.7500    3.3280   22.7260 N   0  0  0  0  0  0  0  0  0  0  0  0
    9.8180    3.4180   23.9510 C   0  0  0  0  0  0  0  0  0  0  0  0
    8.8620    5.2880   22.8010 O   0  0  0  0  0  0  0  0  0  0  0  0
    8.7760    4.1000   23.1190 C   0  0  0  0  0  0  0  0  0  0  0  0
    7.5800    1.9600   22.5520 N   0  0  0  0  0  0  0  0  0  0  0  0
    9.3670    1.4800   21.2420 O   0  0  0  0  0  0  0  0  0  0  0  0
    8.5940    1.1750   22.1460 C   0  0  2  0  0  0  0  0  0  0  0  0
    9.0180   -1.3070   21.9080 N   0  0  0  0  0  0  0  0  0  0  0  0
    7.2380   -0.8870   20.5840 O   0  0  0  0  0  0  0  0  0  0  0  0
    8.6560   -0.2000   22.8120 C   0  0  1  0  0  0  0  0  0  0  0  0
    9.5750   -0.1660   24.0390 C   0  0  0  0  0  0  0  0  0  0  0  0
   11.0130   -0.2280   23.5910 C   0  0  1  0  0  0  0  0  0  0  0  0
   11.3610   -1.1720   22.6170 C   0  0  1  0  0  0  0  0  0  0  0  0
   10.2810   -2.0470   22.0430 C   0  0  0  0  0  0  0  0  0  0  0  0
    8.1120   -1.6550   20.9580 C   0  0  0  0  0  0  0  0  0  0  0  0
    8.1790   -3.0670   20.4050 C   0  0  0  0  0  0  0  0  0  0  0  0
   12.6650   -1.2060   22.1260 C   0  0  0  0  0  0  0  0  0  0  0  0
   13.6020   -0.2860   22.5650 C   0  0  0  0  0  0  0  0  0  0  0  0
   13.2600    0.6430   23.5220 C   0  0  0  0  0  0  0  0  0  0  0  0
   11.9790    0.6660   24.0460 C   0  0  0  0  0  0  0  0  0  0  0  0
    7.6790   -3.1210   18.7540 S   0  0  0  0  0  0  0  0  0  0  0  0
  4  3  1  0
  4  2  1  0
  4  1  1  0
  5  1  1  0
  7  6  1  6
  7  5  1  0
 10  8  1  0
 10  7  1  0
 10 11  1  1
 12 11  1  6
 13 12  1  0
 14  8  1  0
 13 14  1  6
 15  9  1  0
 15  8  1  0
 16 15  1  0
 17 13  1  0
 18 17  1  0
 19 18  1  0
 20 19  1  0
 20 12  1  0
 16 21  1  0
M  END
