
     RDKit          3D

 12 12  0  0  0  0  0  0  0  0999 V2000
   15.3850   43.7850  -18.6290 O   0  0  0  0  0  0  0  0  0  0  0  0
   14.9820   43.6560  -19.9940 S   0  0  2  0  0  0  0  0  0  0  0  0
   14.5910   42.3680  -20.4800 O   0  0  0  0  0  0  0  0  0  0  0  0
   16.2850   44.2440  -21.0060 C   0  0  0  0  0  0  0  0  0  0  0  0
   13.7120   44.6360  -20.2090 N   0  0  0  0  0  0  0  0  0  0  0  0
   12.9260   44.5630  -21.4480 C   0  0  0  0  0  0  0  0  0  0  0  0
   12.6960   45.8570  -22.2160 C   0  0  2  0  0  0  0  0  0  0  0  0
   13.9970   46.5540  -22.6270 C   0  0  0  0  0  0  0  0  0  0  0  0
   14.6350   47.4460  -21.5780 C   0  0  0  0  0  0  0  0  0  0  0  0
   13.6430   48.3730  -21.0100 N   0  0  0  0  0  0  0  0  0  0  0  0
   12.5030   47.6500  -20.4220 C   0  0  0  0  0  0  0  0  0  0  0  0
   11.7820   46.8310  -21.4750 C   0  0  0  0  0  0  0  0  0  0  0  0
  2  1  1  0
  3  2  1  0
  2  4  1  6
  5  2  1  0
  6  5  1  0
  7  6  1  1
  8  7  1  0
  9  8  1  0
 10  9  1  0
 11 10  1  0
 12  7  1  0
 12 11  1  0
M  END
$$$$
