
     RDKit          3D

 22 24  0  0  0  0  0  0  0  0999 V2000
   11.4780    3.4010   24.4110 O   0  0  0  0  0  0  0  0  0  0  0  0
   11.4780    3.8120   23.2620 C   0  0  0  0  0  0  0  0  0  0  0  0
   10.9040    3.1620   22.2280 N   0  0  0  0  0  0  0  0  0  0  0  0
   10.3810    1.8640   22.1780 C   0  0  0  0  0  0  0  0  0  0  0  0
    9.6900    1.6120   21.0540 N   0  0  0  0  0  0  0  0  0  0  0  0
    9.2450    0.3610   20.8690 C   0  0  0  0  0  0  0  0  0  0  0  0
    9.4490   -0.6730   21.7650 C   0  0  0  0  0  0  0  0  0  0  0  0
   10.6180    0.8970   23.1630 C   0  0  0  0  0  0  0  0  0  0  0  0
   10.1360   -0.3830   22.9350 C   0  0  0  0  0  0  0  0  0  0  0  0
   10.3760   -1.2380   23.9800 O   0  0  0  0  0  0  0  0  0  0  0  0
    9.9180   -2.5880   23.8740 C   0  0  0  0  0  0  0  0  0  0  0  0
   12.1440    5.1210   22.8930 C   0  0  0  0  0  0  0  0  0  0  0  0
   11.3660    6.3190   23.3880 C   0  0  0  0  0  0  0  0  0  0  0  0
   11.7370    6.9750   24.5360 C   0  0  0  0  0  0  0  0  0  0  0  0
   11.0470    8.1270   24.9820 C   0  0  0  0  0  0  0  0  0  0  0  0
    9.9510    8.6020   24.2200 C   0  0  0  0  0  0  0  0  0  0  0  0
    9.5830    7.8920   23.0550 C   0  0  0  0  0  0  0  0  0  0  0  0
   10.2760    6.7860   22.6630 C   0  0  0  0  0  0  0  0  0  0  0  0
   11.4160    8.8270   26.1590 C   0  0  0  0  0  0  0  0  0  0  0  0
   10.7380    9.9500   26.5390 C   0  0  0  0  0  0  0  0  0  0  0  0
    9.6700   10.4190   25.7890 C   0  0  0  0  0  0  0  0  0  0  0  0
    9.2750    9.7680   24.6540 C   0  0  0  0  0  0  0  0  0  0  0  0
  2  1  2  0
  3  2  1  0
  4  3  1  0
  5  4  2  0
  6  5  1  0
  7  6  2  0
  8  4  1  0
  9  7  1  0
  9  8  2  0
 10  9  1  0
 11 10  1  0
 12  2  1  0
 13 12  1  0
 14 13  2  0
 15 14  1  0
 16 15  2  0
 17 16  1  0
 18 17  2  0
 18 13  1  0
 19 15  1  0
 20 19  2  0
 21 20  1  0
 22 21  2  0
 22 16  1  0
M  END
