
     RDKit          3D

 25 28  0  0  0  0  0  0  0  0999 V2000
   14.1050   -1.5160   21.3470 Cl  0  0  0  0  0  0  0  0  0  0  0  0
   12.8720   -0.7890   22.3380 C   0  0  0  0  0  0  0  0  0  0  0  0
   11.5640   -1.1900   22.1740 C   0  0  0  0  0  0  0  0  0  0  0  0
   13.2240    0.1710   23.2650 C   0  0  0  0  0  0  0  0  0  0  0  0
   12.2430    0.7300   24.0660 C   0  0  0  0  0  0  0  0  0  0  0  0
   10.9100    0.3470   23.9110 C   0  0  0  0  0  0  0  0  0  0  0  0
    9.8900    0.8880   24.7070 N   0  0  0  0  0  0  0  0  0  0  0  0
   10.2090    1.8390   25.7650 C   0  0  0  0  0  0  0  0  0  0  0  0
   10.5620   -0.6120   22.9460 C   0  0  0  0  0  0  0  0  0  0  0  0
    9.1170   -0.9980   22.7130 C   0  0  1  0  0  0  0  0  0  0  0  0
    8.2790   -0.7900   23.9900 C   0  0  0  0  0  0  0  0  0  0  0  0
    8.4640    0.6260   24.5260 C   0  0  0  0  0  0  0  0  0  0  0  0
    8.5820   -0.1400   21.5660 C   0  0  0  0  0  0  0  0  0  0  0  0
    9.1450    0.8900   21.1940 O   0  0  0  0  0  0  0  0  0  0  0  0
    7.4550   -0.6090   21.0020 N   0  0  0  0  0  0  0  0  0  0  0  0
    6.7510   -0.0440   19.9320 C   0  0  1  0  0  0  0  0  0  0  0  0
    5.6520    0.8190   20.2230 C   0  0  0  0  0  0  0  0  0  0  0  0
    5.1790    1.0820   21.5370 C   0  0  0  0  0  0  0  0  0  0  0  0
    4.1320    1.9340   21.7490 C   0  0  0  0  0  0  0  0  0  0  0  0
    3.4960    2.5540   20.6770 C   0  0  0  0  0  0  0  0  0  0  0  0
    3.9130    2.3290   19.3970 C   0  0  0  0  0  0  0  0  0  0  0  0
    4.9980    1.4590   19.1340 C   0  0  0  0  0  0  0  0  0  0  0  0
    5.4760    1.1840   17.8300 C   0  0  0  0  0  0  0  0  0  0  0  0
    6.4950    0.3780   17.5610 N   0  0  0  0  0  0  0  0  0  0  0  0
    7.1110   -0.2130   18.5970 C   0  0  0  0  0  0  0  0  0  0  0  0
  2  1  1  0
  3  2  1  0
  4  2  1  0
  5  4  1  0
  6  5  1  0
  7  6  1  0
  8  7  1  0
  9  6  1  0
  9  3  1  0
 10  9  1  0
 11 10  1  0
 12 11  1  0
 12  7  1  0
 10 13  1  6
 14 13  1  0
 15 13  1  0
 16 15  1  1
 17 16  1  0
 18 17  1  0
 19 18  1  0
 20 19  1  0
 21 20  1  0
 22 21  1  0
 22 17  1  0
 23 22  1  0
 24 23  1  0
 25 24  1  0
 25 16  1  0
M  END
$$$$
