
     RDKit          3D

 17 19  0  0  0  0  0  0  0  0999 V2000
    6.8390    0.4620   17.8150 N   0  0  0  0  0  0  0  0  0  0  0  0
    5.5020    0.5510   21.9200 C   0  0  0  0  0  0  0  0  0  0  0  0
    9.7100    0.9290   21.2070 O   0  0  0  0  0  0  0  0  0  0  0  0
    5.9620    0.4740   20.4850 C   0  0  0  0  0  0  0  0  0  0  0  0
    8.0420   -0.6160   21.1370 N   0  0  0  0  0  0  0  0  0  0  0  0
    5.1740    0.9810   19.4600 C   0  0  0  0  0  0  0  0  0  0  0  0
    5.6470    0.9590   18.1630 C   0  0  0  0  0  0  0  0  0  0  0  0
    7.6010   -0.0440   18.7910 C   0  0  0  0  0  0  0  0  0  0  0  0
    7.2160   -0.0630   20.1320 C   0  0  0  0  0  0  0  0  0  0  0  0
    9.2110   -0.1280   21.5850 C   0  0  0  0  0  0  0  0  0  0  0  0
    9.8920   -1.0250   22.5940 C   0  0  0  0  0  0  0  0  0  0  0  0
   11.3820   -0.7060   22.8700 C   0  0  2  0  0  0  0  0  0  0  0  0
   12.3740   -0.9530   21.7810 C   0  0  0  0  0  0  0  0  0  0  0  0
   12.4090   -1.7920   23.0290 C   0  0  1  0  0  0  0  0  0  0  0  0
   13.3690   -1.3660   24.1400 C   0  0  0  0  0  0  0  0  0  0  0  0
   12.5890   -0.3090   24.8970 C   0  0  0  0  0  0  0  0  0  0  0  0
   11.7720    0.4160   23.8390 C   0  0  0  0  0  0  0  0  0  0  0  0
  4  2  1  0
  6  4  1  0
  7  6  1  0
  7  1  1  0
  8  1  1  0
  9  8  1  0
  9  5  1  0
  9  4  1  0
 10  5  1  0
 10  3  1  0
 11 10  1  0
 12 11  1  6
 13 12  1  0
 14 13  1  6
 14 12  1  0
 15 14  1  0
 16 15  1  0
 17 16  1  0
 17 12  1  0
M  END
$$$$
