
     RDKit          3D

 30 33  0  0  0  0  0  0  0  0999 V2000
    8.9910    1.5580   21.1220 O   0  0  0  0  0  0  0  0  0  0  0  0
    8.8390    0.4980   21.7070 C   0  0  0  0  0  0  0  0  0  0  0  0
    8.1600   -0.6890   21.0160 C   0  0  0  0  0  0  0  0  0  0  0  0
    7.2800   -0.2470   19.9540 N   0  0  0  0  0  0  0  0  0  0  0  0
    6.1100    0.4450   20.0310 C   0  0  0  0  0  0  0  0  0  0  0  0
    5.2870    0.8230   21.0820 C   0  0  0  0  0  0  0  0  0  0  0  0
    4.1610    1.5790   20.7800 C   0  0  0  0  0  0  0  0  0  0  0  0
    3.8770    1.9470   19.4640 C   0  0  0  0  0  0  0  0  0  0  0  0
    4.7070    1.5600   18.4190 C   0  0  0  0  0  0  0  0  0  0  0  0
    5.8320    0.7920   18.7110 C   0  0  0  0  0  0  0  0  0  0  0  0
    6.8170    0.2720   17.9030 N   0  0  0  0  0  0  0  0  0  0  0  0
    7.6710   -0.3580   18.6580 N   0  0  0  0  0  0  0  0  0  0  0  0
    9.2560    0.3130   22.9930 N   0  0  0  0  0  0  0  0  0  0  0  0
    9.2340   -0.9430   23.6700 C   0  0  0  0  0  0  0  0  0  0  0  0
    8.2980   -1.1930   24.6700 C   0  0  0  0  0  0  0  0  0  0  0  0
    8.2700   -2.4210   25.3100 C   0  0  0  0  0  0  0  0  0  0  0  0
   10.1470   -1.9310   23.3280 C   0  0  0  0  0  0  0  0  0  0  0  0
   10.1170   -3.1590   23.9590 C   0  0  0  0  0  0  0  0  0  0  0  0
    9.1760   -3.4330   24.9610 C   0  0  0  0  0  0  0  0  0  0  0  0
    9.1420   -4.6640   25.5780 N   0  0  0  0  0  0  0  0  0  0  0  0
    9.7490   -5.8240   24.9500 C   0  0  0  0  0  0  0  0  0  0  0  0
    8.1590   -4.9740   26.6050 C   0  0  0  0  0  0  0  0  0  0  0  0
    9.7760    1.4720   23.7370 C   0  0  0  0  0  0  0  0  0  0  0  0
   11.2380    1.7480   23.4810 C   0  0  0  0  0  0  0  0  0  0  0  0
   11.6400    2.9090   22.8240 C   0  0  0  0  0  0  0  0  0  0  0  0
   12.9680    3.0680   22.4740 C   0  0  0  0  0  0  0  0  0  0  0  0
   13.4690    4.5440   21.6920 Cl  0  0  0  0  0  0  0  0  0  0  0  0
   13.9110    2.1020   22.7440 C   0  0  0  0  0  0  0  0  0  0  0  0
   13.5190    0.9650   23.4260 C   0  0  0  0  0  0  0  0  0  0  0  0
   12.1970    0.7960   23.8010 C   0  0  0  0  0  0  0  0  0  0  0  0
  2  1  2  0
  3  2  1  0
  4  3  1  0
  5  4  1  0
  6  5  2  0
  7  6  1  0
  8  7  2  0
  9  8  1  0
 10  9  2  0
 10  5  1  0
 11 10  1  0
 12 11  2  0
 12  4  1  0
 13  2  1  0
 14 13  1  0
 15 14  2  0
 16 15  1  0
 17 14  1  0
 18 17  2  0
 19 18  1  0
 19 16  2  0
 20 19  1  0
 21 20  1  0
 22 20  1  0
 23 13  1  0
 24 23  1  0
 25 24  2  0
 26 25  1  0
 27 26  1  0
 28 26  2  0
 29 28  1  0
 30 29  2  0
 30 24  1  0
M  END
