
     RDKit          3D

 15 16  0  0  0  0  0  0  0  0999 V2000
    3.3860   42.4700   11.7340 N   0  0  0  0  0  0  0  0  0  0  0  0
    2.9150   43.8390   11.5080 C   0  0  0  0  0  0  0  0  0  0  0  0
    4.0390   44.8630   11.4730 C   0  0  0  0  0  0  0  0  0  0  0  0
    5.2090   44.4570   10.5990 C   0  0  0  0  0  0  0  0  0  0  0  0
    6.3620   43.9550   11.3920 N   0  0  0  0  0  0  0  0  0  0  0  0
    7.4420   44.8190   11.7280 C   0  0  0  0  0  0  0  0  0  0  0  0
    7.4470   46.1810   11.4080 C   0  0  0  0  0  0  0  0  0  0  0  0
    8.5600   46.9680   11.6890 C   0  0  0  0  0  0  0  0  0  0  0  0
    9.6660   46.4130   12.3150 C   0  0  0  0  0  0  0  0  0  0  0  0
    9.6560   45.0880   12.6970 C   0  0  0  0  0  0  0  0  0  0  0  0
    8.5670   44.2920   12.3710 C   0  0  0  0  0  0  0  0  0  0  0  0
    8.6500   42.9730   12.7150 O   0  0  0  0  0  0  0  0  0  0  0  0
    7.4740   42.1820   12.6620 C   0  0  0  0  0  0  0  0  0  0  0  0
    6.3730   42.6350   11.7490 C   0  0  0  0  0  0  0  0  0  0  0  0
    5.5160   41.8600   11.3770 O   0  0  0  0  0  0  0  0  0  0  0  0
  2  1  1  0
  3  2  1  0
  4  3  1  0
  5  4  1  0
  6  5  1  0
  7  6  1  0
  8  7  1  0
  9  8  1  0
 10  9  1  0
 11 10  1  0
 11  6  1  0
 12 11  1  0
 13 12  1  0
 14 13  1  0
 14  5  1  0
 15 14  1  0
M  END
$$$$
