
     RDKit          3D

 29 32  0  0  0  0  0  0  0  0999 V2000
   13.9590   -1.6580   20.9710 Cl  0  0  0  0  0  0  0  0  0  0  0  0
   12.9850   -0.6840   22.0270 C   0  0  2  0  0  0  0  0  0  0  0  0
   13.6010    0.2060   22.8770 C   0  0  0  0  0  0  0  0  0  0  0  0
   12.8380    0.9010   23.7970 C   0  0  0  0  0  0  0  0  0  0  0  0
   11.4670    0.6960   23.8380 C   0  0  0  0  0  0  0  0  0  0  0  0
   10.7760    1.4100   24.7840 O   0  0  0  0  0  0  0  0  0  0  0  0
    9.5850    0.7550   25.2480 C   0  0  0  0  0  0  0  0  0  0  0  0
    8.6340    0.4740   24.1130 C   0  0  0  0  0  0  0  0  0  0  0  0
   11.6210   -0.8770   22.0420 C   0  0  0  0  0  0  0  0  0  0  0  0
   10.8370   -0.1830   22.9600 C   0  0  0  0  0  0  0  0  0  0  0  0
    9.3310   -0.3500   23.0120 C   0  0  2  0  0  0  0  0  0  0  0  0
    8.8100    0.0450   21.6330 C   0  0  0  0  0  0  0  0  0  0  0  0
    9.2260    1.0270   21.0500 O   0  0  0  0  0  0  0  0  0  0  0  0
    7.8590   -0.7840   21.0070 N   0  0  0  0  0  0  0  0  0  0  0  0
    7.6970   -2.1560   21.2910 C   0  0  2  0  0  0  0  0  0  0  0  0
    8.5670   -2.7810   21.8860 O   0  0  0  0  0  0  0  0  0  0  0  0
    6.4820   -2.8520   20.7500 C   0  0  0  0  0  0  0  0  0  0  0  0
    6.8630   -3.9580   19.7800 C   0  0  0  0  0  0  0  0  0  0  0  0
    7.0690   -0.1830   19.9500 C   0  0  2  0  0  0  0  0  0  0  0  0
    7.4890   -0.2080   18.6240 C   0  0  0  0  0  0  0  0  0  0  0  0
    6.8510    0.4110   17.6210 N   0  0  0  0  0  0  0  0  0  0  0  0
    5.7500    1.0910   17.9180 C   0  0  0  0  0  0  0  0  0  0  0  0
    5.2080    1.2060   19.2260 C   0  0  0  0  0  0  0  0  0  0  0  0
    5.8910    0.5440   20.2840 C   0  0  0  0  0  0  0  0  0  0  0  0
    4.0120    1.9080   19.5120 C   0  0  0  0  0  0  0  0  0  0  0  0
    3.5090    1.9350   20.7800 C   0  0  0  0  0  0  0  0  0  0  0  0
    4.1620    1.2820   21.8140 C   0  0  0  0  0  0  0  0  0  0  0  0
    5.3290    0.6120   21.5850 C   0  0  0  0  0  0  0  0  0  0  0  0
    8.3990   -3.7440   18.8760 S   0  0  0  0  0  0  0  0  0  0  0  0
  2  1  1  1
  3  2  1  0
  4  3  1  0
  5  4  1  0
  6  5  1  0
  7  6  1  0
  8  7  1  0
  9  2  1  0
 10  9  1  0
 10  5  1  0
 11 10  1  0
 11  8  1  0
 11 12  1  6
 13 12  1  0
 14 12  1  0
 15 14  1  0
 15 16  1  6
 17 15  1  0
 18 17  1  0
 19 14  1  1
 20 19  1  0
 21 20  1  0
 22 21  1  0
 23 22  1  0
 24 23  1  0
 24 19  1  0
 25 23  1  0
 26 25  1  0
 27 26  1  0
 28 27  1  0
 28 24  1  0
 18 29  1  0
M  END
$$$$
