
     RDKit          3D

 18 20  0  0  0  0  0  0  0  0999 V2000
   -0.7300   29.8920   -9.0420 C   0  0  0  0  0  0  0  0  0  0  0  0
   -2.6100   31.1830   -8.0130 C   0  0  0  0  0  0  0  0  0  0  0  0
   -3.1840   32.4600   -8.6240 C   0  0  0  0  0  0  0  0  0  0  0  0
   -2.3080   33.6950   -8.4050 C   0  0  0  0  0  0  0  0  0  0  0  0
   -1.0390   33.6790   -9.2590 C   0  0  0  0  0  0  0  0  0  0  0  0
    0.1870   33.1320   -8.5380 C   0  0  0  0  0  0  0  0  0  0  0  0
   -0.1400   31.8980   -7.7150 C   0  0  0  0  0  0  0  0  0  0  0  0
   -1.7080   28.8580   -9.5970 C   0  0  0  0  0  0  0  0  0  0  0  0
   -2.1950   28.8740  -10.8880 C   0  0  0  0  0  0  0  0  0  0  0  0
   -3.0790   27.8870  -11.3240 C   0  0  0  0  0  0  0  0  0  0  0  0
   -3.4850   26.8550  -10.4580 C   0  0  0  0  0  0  0  0  0  0  0  0
   -4.5100   25.1600   -9.3950 C   0  0  0  0  0  0  0  0  0  0  0  0
   -3.0100   26.8340   -9.1860 C   0  0  0  0  0  0  0  0  0  0  0  0
   -2.1100   27.8410   -8.7470 C   0  0  0  0  0  0  0  0  0  0  0  0
   -1.1830   31.0220   -8.2390 N   0  0  0  0  0  0  0  0  0  0  0  0
    0.4320   29.7290   -9.2360 O   0  0  0  0  0  0  0  0  0  0  0  0
   -4.3550   25.7610  -10.6470 O   0  0  0  0  0  0  0  0  0  0  0  0
   -3.5690   25.7230   -8.5180 O   0  0  0  0  0  0  0  0  0  0  0  0
  3  2  1  0
  4  3  1  0
  5  4  1  0
  6  5  1  0
  7  6  1  0
  8  1  1  0
  9  8  2  0
 10  9  1  0
 11 10  2  0
 13 11  1  0
 14 13  2  0
 14  8  1  0
 15  7  1  0
 15  2  1  0
 15  1  1  0
 16  1  2  0
 17 12  1  0
 17 11  1  0
 18 13  1  0
 18 12  1  0
M  END
