
     RDKit          3D

 37 39  0  0  0  0  0  0  0  0999 V2000
    5.5840   -4.5120   19.7110 O   0  0  0  0  0  0  0  0  0  0  0  0
    6.3810   -4.5880   20.6340 C   0  0  0  0  0  0  0  0  0  0  0  0
    7.6860   -3.8320   20.4950 C   0  0  2  0  0  0  0  0  0  0  0  0
    8.7080   -4.6120   21.1370 O   0  0  0  0  0  0  0  0  0  0  0  0
    7.5540   -2.4360   21.1380 C   0  0  2  0  0  0  0  0  0  0  0  0
    6.8500   -1.3810   20.2800 C   0  0  0  0  0  0  0  0  0  0  0  0
    5.4800   -0.9820   20.8120 C   0  0  1  0  0  0  0  0  0  0  0  0
    5.4340   -0.6350   22.3040 C   0  0  0  0  0  0  0  0  0  0  0  0
    4.9080    0.7500   21.9480 C   0  0  0  0  0  0  0  0  0  0  0  0
    5.1340    0.4640   20.4740 C   0  0  0  0  0  0  0  0  0  0  0  0
    8.8570   -1.7940   21.2870 N   0  0  0  0  0  0  0  0  0  0  0  0
    9.2980   -1.4490   22.4180 C   0  0  0  0  0  0  0  0  0  0  0  0
   10.6090   -0.7290   22.4220 C   0  0  2  0  0  0  0  0  0  0  0  0
   11.6070   -1.5510   23.2400 C   0  0  2  0  0  0  0  0  0  0  0  0
   11.7930   -0.8040   24.5560 C   0  0  1  0  0  0  0  0  0  0  0  0
   12.9730   -0.9480   23.5830 C   0  0  2  0  0  0  0  0  0  0  0  0
   13.5200    0.3040   22.8900 C   0  0  0  0  0  0  0  0  0  0  0  0
   14.0130   -1.9570   24.0560 C   0  0  0  0  0  0  0  0  0  0  0  0
   10.9840    0.4950   24.4740 C   0  0  0  0  0  0  0  0  0  0  0  0
   10.4030    0.5400   23.1260 N   0  0  0  0  0  0  0  0  0  0  0  0
    9.7600    1.5690   22.5390 C   0  0  0  0  0  0  0  0  0  0  0  0
    9.5080    2.7940   23.3810 C   0  0  2  0  0  0  0  0  0  0  0  0
    8.0290    3.0460   23.6780 C   0  0  2  0  0  0  0  0  0  0  0  0
    7.2550    3.4740   22.4230 C   0  0  0  0  0  0  0  0  0  0  0  0
    7.9370    4.1880   24.6890 C   0  0  0  0  0  0  0  0  0  0  0  0
    7.4490    1.7760   24.3190 C   0  0  0  0  0  0  0  0  0  0  0  0
   10.2190    3.9400   22.8180 N   0  0  0  0  0  0  0  0  0  0  0  0
   11.2600    4.4260   23.3600 C   0  0  0  0  0  0  0  0  0  0  0  0
   11.8200    5.3890   22.7460 N   0  0  0  0  0  0  0  0  0  0  0  0
   13.0030    6.1270   23.2110 C   0  0  1  0  0  0  0  0  0  0  0  0
   14.2050    5.2130   23.4210 C   0  0  0  0  0  0  0  0  0  0  0  0
   13.3960    7.1330   22.1490 C   0  0  0  0  0  0  0  0  0  0  0  0
   12.7190    6.9060   24.4950 C   0  0  0  0  0  0  0  0  0  0  0  0
   11.6770    3.9950   24.4350 O   0  0  0  0  0  0  0  0  0  0  0  0
    9.4280    1.5790   21.3590 O   0  0  0  0  0  0  0  0  0  0  0  0
    8.7100   -1.6520   23.4750 O   0  0  0  0  0  0  0  0  0  0  0  0
    6.1350   -5.2740   21.6870 N   0  0  0  0  0  0  0  0  0  0  0  0
  2  1  2  0
  3  2  1  0
  3  4  1  1
  5  3  1  0
  5  6  1  6
  7  6  1  6
  8  7  1  0
  9  8  1  0
 10  9  1  0
 10  7  1  0
 11  5  1  0
 12 11  1  0
 13 12  1  1
 14 13  1  6
 15 14  1  0
 16 15  1  0
 16 14  1  0
 16 17  1  6
 18 16  1  0
 15 19  1  6
 20 13  1  0
 20 19  1  0
 21 20  1  0
 22 21  1  0
 23 22  1  0
 23 24  1  6
 25 23  1  0
 26 23  1  0
 22 27  1  6
 28 27  1  0
 29 28  1  0
 30 29  1  0
 30 31  1  1
 32 30  1  0
 33 30  1  0
 34 28  2  0
 35 21  2  0
 36 12  2  0
 37  2  1  0
M  END
$$$$
