
     RDKit          3D

 23 25  0  0  0  0  0  0  0  0999 V2000
    7.2870   -0.6030   20.8960 N   0  0  0  0  0  0  0  0  0  0  0  0
    8.2850   -1.3980   23.7460 C   0  0  0  0  0  0  0  0  0  0  0  0
    9.0450    0.8160   21.1810 O   0  0  0  0  0  0  0  0  0  0  0  0
   14.0920   -1.5190   21.0660 Cl  0  0  0  0  0  0  0  0  0  0  0  0
    9.0720   -1.2460   22.4390 C   0  0  1  0  0  0  0  0  0  0  0  0
    6.3330    0.6370   17.5690 N   0  0  0  0  0  0  0  0  0  0  0  0
    8.4700   -0.2350   21.4570 C   0  0  0  0  0  0  0  0  0  0  0  0
    4.9920    1.0720   21.5380 N   0  0  0  0  0  0  0  0  0  0  0  0
    6.5790    0.1000   19.8920 C   0  0  0  0  0  0  0  0  0  0  0  0
    3.6580    1.1990   21.7880 N   0  0  0  0  0  0  0  0  0  0  0  0
    6.9750    0.0150   18.5610 C   0  0  0  0  0  0  0  0  0  0  0  0
    5.2600    1.3690   17.8850 C   0  0  0  0  0  0  0  0  0  0  0  0
    4.7790    1.5290   19.1710 C   0  0  0  0  0  0  0  0  0  0  0  0
    5.4550    0.8860   20.1990 C   0  0  0  0  0  0  0  0  0  0  0  0
    5.7340    1.2420   22.6630 C   0  0  0  0  0  0  0  0  0  0  0  0
    4.8590    1.5040   23.6790 C   0  0  0  0  0  0  0  0  0  0  0  0
    3.5980    1.4640   23.0870 C   0  0  0  0  0  0  0  0  0  0  0  0
   10.5160   -0.8320   22.6970 C   0  0  2  0  0  0  0  0  0  0  0  0
   10.8170    0.1450   23.6400 C   0  0  0  0  0  0  0  0  0  0  0  0
   12.1100    0.6300   23.7680 C   0  0  0  0  0  0  0  0  0  0  0  0
   13.1240    0.1350   22.9660 C   0  0  0  0  0  0  0  0  0  0  0  0
   12.8250   -0.8630   22.0610 C   0  0  0  0  0  0  0  0  0  0  0  0
   11.5430   -1.3550   21.9200 C   0  0  0  0  0  0  0  0  0  0  0  0
  5  2  1  1
  7  3  1  0
  7  1  1  0
  7  5  1  0
  9  1  1  0
 10  8  1  0
 11  9  1  0
 11  6  1  0
 12  6  1  0
 13 12  1  0
 14 13  1  0
 14  8  1  0
 14  9  1  0
 15  8  1  0
 16 15  1  0
 17 10  1  0
 17 16  1  0
 18  5  1  0
 18 19  1  6
 20 19  1  0
 21 20  1  0
 22  4  1  0
 22 21  1  0
 23 18  1  0
 23 22  1  0
M  END
$$$$
