
     RDKit          3D

 16 17  0  0  0  0  0  0  0  0999 V2000
    7.0510   -2.3380   20.8000 N   0  0  0  0  0  0  0  0  0  0  0  0
    7.3220   -2.4520   18.3440 C   0  0  0  0  0  0  0  0  0  0  0  0
    5.8210   -3.7900   19.6140 O   0  0  0  0  0  0  0  0  0  0  0  0
    6.6690   -2.9050   19.6370 C   0  0  0  0  0  0  0  0  0  0  0  0
    8.7750   -2.0990   23.0770 N   0  0  0  0  0  0  0  0  0  0  0  0
    6.6340   -2.8350   22.1080 C   0  0  0  0  0  0  0  0  0  0  0  0
    7.8460   -3.2240   22.9220 C   0  0  0  0  0  0  0  0  0  0  0  0
    9.9490   -2.5080   23.8500 C   0  0  0  0  0  0  0  0  0  0  0  0
   11.0290   -1.4570   23.8460 C   0  0  0  0  0  0  0  0  0  0  0  0
   12.1310   -1.3860   22.9400 C   0  0  0  0  0  0  0  0  0  0  0  0
   12.8390   -0.2400   23.0330 C   0  0  0  0  0  0  0  0  0  0  0  0
   11.0630   -0.3720   24.7150 C   0  0  0  0  0  0  0  0  0  0  0  0
    9.1590   -1.6070   21.7480 C   0  0  0  0  0  0  0  0  0  0  0  0
    7.9490   -1.1980   20.9430 C   0  0  0  0  0  0  0  0  0  0  0  0
   12.2040    0.7810   24.2180 S   0  0  0  0  0  0  0  0  0  0  0  0
    8.9200   -3.2750   18.1310 S   0  0  0  0  0  0  0  0  0  0  0  0
  4  3  2  0
  4  2  1  0
  4  1  1  0
  6  1  1  0
  7  6  1  0
  7  5  1  0
  8  5  1  0
  9  8  1  0
 10  9  1  0
 11 10  2  0
 12  9  2  0
 13  5  1  0
 14 13  1  0
 14  1  1  0
 15 12  1  0
 15 11  1  0
  2 16  1  0
M  END
