
     RDKit          3D

 16 17  0  0  0  0  0  0  0  0999 V2000
    7.1210   -2.3770   20.8140 N   0  0  0  0  0  0  0  0  0  0  0  0
    7.3910   -2.4850   18.3580 C   0  0  0  0  0  0  0  0  0  0  0  0
    5.8870   -3.8230   19.6260 O   0  0  0  0  0  0  0  0  0  0  0  0
    6.7370   -2.9400   19.6500 C   0  0  0  0  0  0  0  0  0  0  0  0
    8.0210   -1.2390   20.9600 C   0  0  0  0  0  0  0  0  0  0  0  0
    6.7030   -2.8760   22.1210 C   0  0  0  0  0  0  0  0  0  0  0  0
    7.9150   -3.2690   22.9340 C   0  0  0  0  0  0  0  0  0  0  0  0
   10.0200   -2.5600   23.8630 C   0  0  0  0  0  0  0  0  0  0  0  0
   11.1020   -1.5110   23.8610 C   0  0  0  0  0  0  0  0  0  0  0  0
   12.2030   -1.4400   22.9550 C   0  0  0  0  0  0  0  0  0  0  0  0
   12.9140   -0.2960   23.0500 C   0  0  0  0  0  0  0  0  0  0  0  0
   11.1380   -0.4280   24.7330 C   0  0  0  0  0  0  0  0  0  0  0  0
    9.2310   -1.6520   21.7630 C   0  0  0  0  0  0  0  0  0  0  0  0
    8.8460   -2.1470   23.0910 N   0  0  0  0  0  0  0  0  0  0  0  0
   12.2810    0.7240   24.2380 S   0  0  0  0  0  0  0  0  0  0  0  0
    8.9860   -3.3100   18.1420 S   0  0  0  0  0  0  0  0  0  0  0  0
  4  3  1  0
  4  2  1  0
  4  1  1  0
  5  1  1  0
  6  1  1  0
  7  6  1  0
  9  8  1  0
 10  9  1  0
 11 10  1  0
 12  9  1  0
 13  5  1  0
 14 13  1  0
 14  8  1  0
 14  7  1  0
 15 12  1  0
 15 11  1  0
  2 16  1  0
M  END
$$$$
