
     RDKit          3D

  7  7  0  0  0  0  0  0  0  0999 V2000
    7.2280   49.1940   -9.9470 N   0  0  0  0  0  0  0  0  0  0  0  0
    6.7830   48.7020   -8.8360 C   0  0  0  0  0  0  0  0  0  0  0  0
    7.2350   47.5780   -8.2400 N   0  0  0  0  0  0  0  0  0  0  0  0
    6.7330   47.0000   -6.9950 C   0  0  0  0  0  0  0  0  0  0  0  0
    6.1040   48.0790   -6.1500 C   0  0  0  0  0  0  0  0  0  0  0  0
    5.1540   48.9590   -6.9650 C   0  0  0  0  0  0  0  0  0  0  0  0
    5.7820   49.3750   -8.2360 N   0  0  0  0  0  0  0  0  0  0  0  0
  2  1  1  0
  3  2  1  0
  4  3  1  0
  5  4  1  0
  6  5  1  0
  7  6  1  0
  7  2  1  0
M  END
$$$$
