
     RDKit          3D

 15 16  0  0  0  0  0  0  0  0999 V2000
    9.8270   44.7920  -18.9930 O   0  0  0  0  0  0  0  0  0  0  0  0
    9.1770   45.8720  -19.0590 C   0  0  1  0  0  0  0  0  0  0  0  0
    8.0010   45.8730  -19.5080 O   0  0  0  0  0  0  0  0  0  0  0  0
    9.7780   47.1670  -18.5200 C   0  0  0  0  0  0  0  0  0  0  0  0
    8.9190   48.1870  -18.1570 C   0  0  0  0  0  0  0  0  0  0  0  0
    9.4740   49.3510  -17.6510 C   0  0  0  0  0  0  0  0  0  0  0  0
   10.8480   49.4680  -17.5300 C   0  0  0  0  0  0  0  0  0  0  0  0
   11.6330   48.4590  -17.8840 N   0  0  0  0  0  0  0  0  0  0  0  0
   11.1490   47.3250  -18.3710 C   0  0  0  0  0  0  0  0  0  0  0  0
   11.4320   50.7550  -16.9360 C   0  0  2  0  0  0  0  0  0  0  0  0
   12.7430   51.1360  -17.1780 C   0  0  0  0  0  0  0  0  0  0  0  0
   13.2430   52.2970  -16.5990 C   0  0  0  0  0  0  0  0  0  0  0  0
   12.4370   53.0640  -15.7570 C   0  0  0  0  0  0  0  0  0  0  0  0
   11.1410   52.6720  -15.4910 C   0  0  0  0  0  0  0  0  0  0  0  0
   10.6390   51.5140  -16.0770 C   0  0  0  0  0  0  0  0  0  0  0  0
  2  1  1  1
  3  2  1  0
  4  2  1  0
  5  4  1  0
  6  5  1  0
  7  6  1  0
  8  7  1  0
  9  4  1  0
  9  8  1  0
 10  7  1  1
 11 10  1  0
 12 11  1  0
 13 12  1  0
 14 13  1  0
 15 10  1  0
 15 14  1  0
M  CHG  1   1  -1
M  END
$$$$
