
     RDKit          3D

 17 18  0  0  0  0  0  0  0  0999 V2000
    6.9350   -0.4240   20.6310 N   0  0  0  0  0  0  0  0  0  0  0  0
   12.4150   -0.7620   22.3130 C   0  0  0  0  0  0  0  0  0  0  0  0
    8.6730    1.0350   20.7790 O   0  0  0  0  0  0  0  0  0  0  0  0
   13.7190   -1.6660   21.5860 Cl  0  0  0  0  0  0  0  0  0  0  0  0
   12.7070    0.3550   23.0660 C   0  0  0  0  0  0  0  0  0  0  0  0
    6.1330    0.4430   19.9080 N   0  0  0  0  0  0  0  0  0  0  0  0
    6.8340   -0.0520   17.7550 O   0  0  0  0  0  0  0  0  0  0  0  0
   11.6620    1.0570   23.6450 C   0  0  0  0  0  0  0  0  0  0  0  0
    4.5990    1.9460   19.4670 N   0  0  0  0  0  0  0  0  0  0  0  0
   10.3500    0.6510   23.4420 C   0  0  0  0  0  0  0  0  0  0  0  0
    5.1550    1.4530   18.3060 N   0  0  0  0  0  0  0  0  0  0  0  0
   10.0620   -0.4550   22.6500 C   0  0  0  0  0  0  0  0  0  0  0  0
    8.6340   -0.8160   22.3040 C   0  0  0  0  0  0  0  0  0  0  0  0
    8.0970    0.0170   21.1560 C   0  0  0  0  0  0  0  0  0  0  0  0
    5.2160    1.3130   20.4110 C   0  0  0  0  0  0  0  0  0  0  0  0
    6.1070    0.5340   18.5360 C   0  0  0  0  0  0  0  0  0  0  0  0
   11.1160   -1.1820   22.1040 C   0  0  0  0  0  0  0  0  0  0  0  0
  4  2  1  0
  5  2  2  0
  6  1  1  0
  8  5  1  0
 10  8  2  0
 11  9  1  0
 12 10  1  0
 13 12  1  0
 14  3  2  0
 14  1  1  0
 14 13  1  0
 15  9  2  0
 15  6  1  0
 16 11  1  0
 16  7  2  0
 16  6  1  0
 17 12  2  0
 17  2  1  0
M  END
