
     RDKit          3D

 12 13  0  0  0  0  0  0  0  0999 V2000
   30.0660   48.8410   -5.8590 O   0  0  0  0  0  0  0  0  0  0  0  0
   29.5250   49.9360   -6.0390 C   0  0  0  0  0  0  0  0  0  0  0  0
   29.1340   50.7280   -5.0580 N   0  0  0  0  0  0  0  0  0  0  0  0
   29.3510   50.5360   -7.4160 C   0  0  2  0  0  0  0  0  0  0  0  0
   30.2650   51.6870   -7.4220 C   0  0  0  0  0  0  0  0  0  0  0  0
   31.4350   51.7070   -6.8160 N   0  0  0  0  0  0  0  0  0  0  0  0
   31.8790   53.0030   -6.9620 C   0  0  0  0  0  0  0  0  0  0  0  0
   30.9970   53.7290   -7.6830 C   0  0  0  0  0  0  0  0  0  0  0  0
   29.9630   52.8820   -7.9690 N   0  0  0  0  0  0  0  0  0  0  0  0
   28.7080   53.2230   -8.6420 C   0  0  0  0  0  0  0  0  0  0  0  0
   27.8120   52.0060   -8.7900 C   0  0  0  0  0  0  0  0  0  0  0  0
   27.9130   51.0830   -7.5830 C   0  0  0  0  0  0  0  0  0  0  0  0
  2  1  2  0
  3  2  1  0
  4  2  1  1
  5  4  1  0
  6  5  2  0
  7  6  1  0
  8  7  2  0
  9  8  1  0
  9  5  1  0
 10  9  1  0
 11 10  1  0
 12 11  1  0
 12  4  1  0
M  END
