
     RDKit          3D

 12 12  0  0  0  0  0  0  0  0999 V2000
   37.8160   47.1340   -4.3630 Br  0  0  0  0  0  0  0  0  0  0  0  0
   36.0420   46.6520   -4.7040 C   0  0  2  0  0  0  0  0  0  0  0  0
   35.6800   45.3610   -4.5530 C   0  0  0  0  0  0  0  0  0  0  0  0
   34.3780   44.9610   -4.8940 C   0  0  1  0  0  0  0  0  0  0  0  0
   33.9370   43.8410   -4.6540 O   0  0  0  0  0  0  0  0  0  0  0  0
   35.1480   47.6580   -5.1600 C   0  0  0  0  0  0  0  0  0  0  0  0
   33.9160   47.2460   -5.4930 C   0  0  0  0  0  0  0  0  0  0  0  0
   33.5490   45.9330   -5.4270 N   0  0  0  0  0  0  0  0  0  0  0  0
   32.2560   45.5280   -5.9590 C   0  0  0  0  0  0  0  0  0  0  0  0
   32.2040   45.7170   -7.4570 C   0  0  0  0  0  0  0  0  0  0  0  0
   31.1760   45.5820   -8.0720 O   0  0  0  0  0  0  0  0  0  0  0  0
   33.3290   46.0370   -8.0420 O   0  0  0  0  0  0  0  0  0  0  0  0
  2  1  1  6
  3  2  1  0
  4  3  1  0
  4  5  1  1
  6  2  1  0
  7  6  1  0
  8  7  1  0
  8  4  1  0
  9  8  1  0
 10  9  1  0
 11 10  1  0
 12 10  1  0
M  END
$$$$
