
     RDKit          3D

 19 20  0  0  0  0  0  0  0  0999 V2000
   14.4980   -1.7120   20.4870 N   0  0  0  0  0  0  0  0  0  0  0  0
   13.7650   -1.3000   21.2580 C   0  0  0  0  0  0  0  0  0  0  0  0
   12.8060   -0.8090   22.2130 C   0  0  0  0  0  0  0  0  0  0  0  0
   13.1810    0.0030   23.2820 C   0  0  0  0  0  0  0  0  0  0  0  0
   12.3180    0.4450   24.2060 N   0  0  0  0  0  0  0  0  0  0  0  0
   11.0290    0.1060   24.0550 C   0  0  0  0  0  0  0  0  0  0  0  0
   11.4640   -1.1590   22.0960 C   0  0  0  0  0  0  0  0  0  0  0  0
   10.5410   -0.6720   23.0150 C   0  0  0  0  0  0  0  0  0  0  0  0
    9.0560   -0.8520   22.7980 C   0  0  0  0  0  0  0  0  0  0  0  0
    8.6250   -0.0590   21.5800 C   0  0  0  0  0  0  0  0  0  0  0  0
    9.4270    0.5990   20.9310 O   0  0  0  0  0  0  0  0  0  0  0  0
    7.3100    0.0540   21.3900 N   0  0  0  0  0  0  0  0  0  0  0  0
    6.6920    0.3530   20.1550 C   0  0  0  0  0  0  0  0  0  0  0  0
    5.3730    0.8120   20.1630 C   0  0  0  0  0  0  0  0  0  0  0  0
    4.6420    1.0950   21.4510 C   0  0  0  0  0  0  0  0  0  0  0  0
    7.3300    0.1620   18.9250 C   0  0  0  0  0  0  0  0  0  0  0  0
    6.7720    0.4720   17.7510 N   0  0  0  0  0  0  0  0  0  0  0  0
    5.5340    0.9780   17.7770 C   0  0  0  0  0  0  0  0  0  0  0  0
    4.8050    1.1470   18.9380 C   0  0  0  0  0  0  0  0  0  0  0  0
  2  1  3  0
  3  2  1  0
  4  3  2  0
  5  4  1  0
  6  5  2  0
  7  3  1  0
  8  7  2  0
  8  6  1  0
  9  8  1  0
 10  9  1  0
 11 10  2  0
 12 10  1  0
 13 12  1  0
 14 13  2  0
 15 14  1  0
 16 13  1  0
 17 16  2  0
 18 17  1  0
 19 14  1  0
 19 18  2  0
M  END
