
     RDKit          3D

 20 21  0  0  0  0  0  0  0  0999 V2000
    8.7850   -2.2230   22.4770 F   0  0  0  0  0  0  0  0  0  0  0  0
   10.9030    0.2220   23.9380 C   0  0  0  0  0  0  0  0  0  0  0  0
    6.4810    0.6070   17.5530 N   0  0  0  0  0  0  0  0  0  0  0  0
   12.7570   -1.0050   22.3270 C   0  0  0  0  0  0  0  0  0  0  0  0
    5.5100    0.8440   20.1760 C   0  0  0  0  0  0  0  0  0  0  0  0
   13.1900   -0.0910   23.2670 C   0  0  0  0  0  0  0  0  0  0  0  0
    5.0020    1.0270   21.5840 C   0  0  0  0  0  0  0  0  0  0  0  0
   10.4760   -0.6710   22.9620 C   0  0  0  0  0  0  0  0  0  0  0  0
    4.8890    1.4870   19.1100 C   0  0  0  0  0  0  0  0  0  0  0  0
    8.4930   -0.0930   21.4930 C   0  0  0  0  0  0  0  0  0  0  0  0
    7.3550   -0.5600   20.9400 N   0  0  0  0  0  0  0  0  0  0  0  0
    9.0970    0.9010   21.1160 O   0  0  0  0  0  0  0  0  0  0  0  0
    6.6420    0.0630   19.8890 C   0  0  0  0  0  0  0  0  0  0  0  0
    9.0100   -0.9000   22.7050 C   0  0  1  0  0  0  0  0  0  0  0  0
    7.0790   -0.0250   18.5690 C   0  0  0  0  0  0  0  0  0  0  0  0
   12.2510    0.5110   24.0900 C   0  0  0  0  0  0  0  0  0  0  0  0
   11.4220   -1.3090   22.1690 C   0  0  0  0  0  0  0  0  0  0  0  0
    5.4000    1.3440   17.8360 C   0  0  0  0  0  0  0  0  0  0  0  0
    8.2550   -0.5820   23.7960 F   0  0  0  0  0  0  0  0  0  0  0  0
   13.9250   -1.8130   21.3220 Cl  0  0  0  0  0  0  0  0  0  0  0  0
  6  4  1  0
  7  5  1  0
  8  2  2  0
  9  5  1  0
 11 10  1  0
 12 10  2  0
 13 11  1  0
 13  5  2  0
 14 10  1  0
 14  8  1  0
 14  1  1  6
 15 13  1  0
 15  3  2  0
 16  6  2  0
 16  2  1  0
 17  8  1  0
 17  4  2  0
 18  9  2  0
 18  3  1  0
 19 14  1  0
 20  4  1  0
M  END
