
     RDKit          3D

 21 22  0  0  0  0  0  0  0  0999 V2000
    7.0810   -3.2960   21.4770 N   0  0  0  0  0  0  0  0  0  0  0  0
    5.9730   -1.4420   25.1870 C   0  0  0  0  0  0  0  0  0  0  0  0
    4.7490   -1.3630   25.1500 O   0  0  0  0  0  0  0  0  0  0  0  0
    6.7530   -2.1830   24.1380 C   0  0  0  0  0  0  0  0  0  0  0  0
    6.7320   -0.8790   26.1460 N   0  0  0  0  0  0  0  0  0  0  0  0
    5.9830   -4.6220   20.0220 O   0  0  0  0  0  0  0  0  0  0  0  0
    6.0170   -3.4560   23.6960 C   0  0  0  0  0  0  0  0  0  0  0  0
    6.5200    2.0030   28.4230 N   0  0  0  0  0  0  0  0  0  0  0  0
    5.5740    2.1530   30.5450 O   0  0  0  0  0  0  0  0  0  0  0  0
    6.8310   -4.1770   22.6250 C   0  0  0  0  0  0  0  0  0  0  0  0
    6.6640   -3.6290   20.2370 C   0  0  0  0  0  0  0  0  0  0  0  0
    7.0510   -2.6940   19.1080 C   0  0  0  0  0  0  0  0  0  0  0  0
    7.7990   -2.0680   21.8500 C   0  0  0  0  0  0  0  0  0  0  0  0
    7.0320   -1.2860   22.9230 C   0  0  0  0  0  0  0  0  0  0  0  0
    6.2950   -0.0790   27.2250 C   0  0  0  0  0  0  0  0  0  0  0  0
    5.4980   -0.5840   28.2420 C   0  0  0  0  0  0  0  0  0  0  0  0
    5.2340    0.1870   29.3590 C   0  0  0  0  0  0  0  0  0  0  0  0
    5.7910    1.4730   29.3990 C   0  0  0  0  0  0  0  0  0  0  0  0
    6.1150    3.4730   30.6620 C   0  0  0  0  0  0  0  0  0  0  0  0
    6.7580    1.2270   27.3580 C   0  0  0  0  0  0  0  0  0  0  0  0
    8.4930   -3.5290   18.6880 S   0  0  0  0  0  0  0  0  0  0  0  0
  3  2  2  0
  4  2  1  0
  5  2  1  0
  7  4  1  0
 10  1  1  0
 10  7  1  0
 11  6  2  0
 11  1  1  0
 12 11  1  0
 13  1  1  0
 14 13  1  0
 14  4  1  0
 15  5  1  0
 16 15  1  0
 17 16  2  0
 18 17  1  0
 18  9  1  0
 18  8  2  0
 19  9  1  0
 20 15  2  0
 20  8  1  0
 12 21  1  0
M  END
