
     RDKit          3D

 10 10  0  0  0  0  0  0  0  0999 V2000
   29.2460   54.6040   -6.7540 N   0  0  0  0  0  0  0  0  0  0  0  0
   28.7260   53.8350   -7.9030 C   0  0  0  0  0  0  0  0  0  0  0  0
   28.8370   52.3490   -7.6560 C   0  0  0  0  0  0  0  0  0  0  0  0
   28.3190   51.5530   -8.6330 N   0  0  0  0  0  0  0  0  0  0  0  0
   28.4620   50.1790   -8.6690 C   0  0  0  0  0  0  0  0  0  0  0  0
   28.1280   49.4880   -9.7320 N   0  0  0  0  0  0  0  0  0  0  0  0
   28.2830   48.1410   -9.4700 C   0  0  0  0  0  0  0  0  0  0  0  0
   28.7180   47.8350   -8.2360 C   0  0  0  0  0  0  0  0  0  0  0  0
   29.1410   49.2620   -7.3630 S   0  0  0  0  0  0  0  0  0  0  0  0
   29.3420   51.8920   -6.6460 O   0  0  0  0  0  0  0  0  0  0  0  0
  2  1  1  0
  3  2  1  0
  4  3  1  0
  5  4  1  0
  6  5  1  0
  7  6  1  0
  8  7  1  0
  9  8  1  0
  9  5  1  0
 10  3  1  0
M  CHG  1   1   1
M  END
$$$$
