
     RDKit          3D

 34 36  0  0  0  0  0  0  0  0999 V2000
    9.0250    1.2390   21.0330 O   0  0  0  0  0  0  0  0  0  0  0  0
    8.0190    1.0820   21.7180 C   0  0  0  0  0  0  0  0  0  0  0  0
    7.0230   -0.0440   21.3990 C   0  0  1  0  0  0  0  0  0  0  0  0
    6.3420    0.1890   20.0620 C   0  0  0  0  0  0  0  0  0  0  0  0
    5.1380    0.8760   19.9890 C   0  0  0  0  0  0  0  0  0  0  0  0
    4.6650    1.3190   18.7680 C   0  0  0  0  0  0  0  0  0  0  0  0
    5.4090    1.0400   17.6390 C   0  0  0  0  0  0  0  0  0  0  0  0
    6.5610    0.3600   17.6670 N   0  0  0  0  0  0  0  0  0  0  0  0
    6.9960   -0.0570   18.8620 C   0  0  0  0  0  0  0  0  0  0  0  0
    7.4200   -1.4470   21.7080 N   0  0  0  0  0  0  0  0  0  0  0  0
    8.6700   -1.6090   22.4030 C   0  0  0  0  0  0  0  0  0  0  0  0
    8.6990   -1.7750   23.7840 C   0  0  0  0  0  0  0  0  0  0  0  0
    9.9150   -1.9470   24.4240 C   0  0  0  0  0  0  0  0  0  0  0  0
   11.0820   -1.9310   23.6660 C   0  0  0  0  0  0  0  0  0  0  0  0
   12.4800   -2.0520   24.2930 C   0  0  1  0  0  0  0  0  0  0  0  0
   12.9700   -0.7090   24.8230 C   0  0  0  0  0  0  0  0  0  0  0  0
   12.5380   -3.1190   25.3880 C   0  0  0  0  0  0  0  0  0  0  0  0
   11.0690   -1.7710   22.3330 N   0  0  0  0  0  0  0  0  0  0  0  0
    9.8830   -1.6250   21.7210 C   0  0  0  0  0  0  0  0  0  0  0  0
    6.6440   -2.5190   21.3670 C   0  0  0  0  0  0  0  0  0  0  0  0
    5.4990   -2.3780   20.9800 O   0  0  0  0  0  0  0  0  0  0  0  0
    7.2610   -3.8990   21.4190 C   0  0  0  0  0  0  0  0  0  0  0  0
    6.9550   -4.7100   20.1640 C   0  0  0  0  0  0  0  0  0  0  0  0
    7.6200    1.9440   22.6770 N   0  0  0  0  0  0  0  0  0  0  0  0
    8.2540    3.2000   22.8980 C   0  0  0  0  0  0  0  0  0  0  0  0
    7.6510    4.3600   22.3950 C   0  0  0  0  0  0  0  0  0  0  0  0
    6.2930    4.3320   21.7410 C   0  0  0  0  0  0  0  0  0  0  0  0
    8.3170    5.5720   22.5750 C   0  0  0  0  0  0  0  0  0  0  0  0
    9.5140    5.6380   23.2640 C   0  0  0  0  0  0  0  0  0  0  0  0
   10.0910    4.4820   23.7650 C   0  0  0  0  0  0  0  0  0  0  0  0
    9.4780    3.2430   23.5880 C   0  0  0  0  0  0  0  0  0  0  0  0
   10.1300    1.9980   24.1520 C   0  0  0  0  0  0  0  0  0  0  0  0
    9.4420    1.4570   25.3960 C   0  0  0  0  0  0  0  0  0  0  0  0
    8.1570   -3.8660   19.1220 S   0  0  0  0  0  0  0  0  0  0  0  0
  2  1  2  0
  3  2  1  6
  4  3  1  0
  5  4  2  0
  6  5  1  0
  7  6  2  0
  8  7  1  0
  9  8  2  0
  9  4  1  0
 10  3  1  0
 11 10  1  0
 12 11  2  0
 13 12  1  0
 14 13  2  0
 15 14  1  0
 15 16  1  1
 17 15  1  0
 18 14  1  0
 19 11  1  0
 19 18  2  0
 20 10  1  0
 21 20  2  0
 22 20  1  0
 23 22  1  0
 24  2  1  0
 25 24  1  0
 26 25  2  0
 27 26  1  0
 28 26  1  0
 29 28  2  0
 30 29  1  0
 31 30  2  0
 31 25  1  0
 32 31  1  0
 33 32  1  0
 23 34  1  0
M  END
