
     RDKit          3D

 18 19  0  0  0  0  0  0  0  0999 V2000
    3.0550    2.2660   23.3760 C   0  0  0  0  0  0  0  0  0  0  0  0
    5.3300    1.5030   22.5690 C   0  0  0  0  0  0  0  0  0  0  0  0
    5.0000    0.2710   21.7300 C   0  0  0  0  0  0  0  0  0  0  0  0
    5.4280    0.3880   20.2680 C   0  0  0  0  0  0  0  0  0  0  0  0
    6.4960   -0.3840   19.8080 C   0  0  0  0  0  0  0  0  0  0  0  0
    6.8790   -0.2690   18.4780 C   0  0  0  0  0  0  0  0  0  0  0  0
    5.2120    1.2820   18.0740 C   0  0  0  0  0  0  0  0  0  0  0  0
    4.7590    1.2450   19.3890 C   0  0  0  0  0  0  0  0  0  0  0  0
    0.7800    3.2560   23.9770 C   0  0  1  0  0  0  0  0  0  0  0  0
    0.6750    4.6960   24.4870 C   0  0  0  0  0  0  0  0  0  0  0  0
   -0.6470    4.9500   25.1950 C   0  0  0  0  0  0  0  0  0  0  0  0
   -1.8160    4.6400   24.2700 C   0  0  0  0  0  0  0  0  0  0  0  0
   -1.7640    3.2080   23.7520 C   0  0  0  0  0  0  0  0  0  0  0  0
   -0.4130    2.8510   23.1240 C   0  0  0  0  0  0  0  0  0  0  0  0
    4.1990    2.4010   22.4890 N   0  0  0  0  0  0  0  0  0  0  0  0
    6.2440    0.5430   17.6640 N   0  0  0  0  0  0  0  0  0  0  0  0
    1.9780    3.2140   23.1660 N   0  0  0  0  0  0  0  0  0  0  0  0
    3.0150    1.4220   24.2210 O   0  0  0  0  0  0  0  0  0  0  0  0
  3  2  1  0
  4  3  1  0
  5  4  2  0
  6  5  1  0
  8  7  2  0
  8  4  1  0
 10  9  1  0
 11 10  1  0
 12 11  1  0
 13 12  1  0
 14 13  1  0
 14  9  1  0
 15  2  1  0
 15  1  1  0
 16  7  1  0
 16  6  2  0
  9 17  1  6
 17  1  1  0
 18  1  2  0
M  END
