
     RDKit          3D

 32 35  0  0  0  0  0  0  0  0999 V2000
    6.7110   -2.2020   21.6210 C   0  0  0  0  0  0  0  0  0  0  0  0
    7.5390   -2.8640   22.5740 C   0  0  2  0  0  0  0  0  0  0  0  0
    7.0450   -4.1250   23.2760 C   0  0  0  0  0  0  0  0  0  0  0  0
    6.3140   -5.1450   22.6310 C   0  0  0  0  0  0  0  0  0  0  0  0
    5.9910   -5.0880   21.1420 C   0  0  0  0  0  0  0  0  0  0  0  0
    5.8710   -6.2580   23.3560 C   0  0  0  0  0  0  0  0  0  0  0  0
    8.8310    0.7260   20.7250 O   0  0  0  0  0  0  0  0  0  0  0  0
    8.4210   -0.4560   21.3350 C   0  0  0  0  0  0  0  0  0  0  0  0
    6.3700   -0.3390   20.0110 C   0  0  0  0  0  0  0  0  0  0  0  0
    6.8130   -0.3270   18.6890 C   0  0  0  0  0  0  0  0  0  0  0  0
    4.8400    0.9090   18.0490 C   0  0  0  0  0  0  0  0  0  0  0  0
    4.4050    0.8910   19.3880 C   0  0  0  0  0  0  0  0  0  0  0  0
    5.1680    0.2680   20.3760 C   0  0  0  0  0  0  0  0  0  0  0  0
   12.2930    2.7110   23.4180 O   0  0  0  0  0  0  0  0  0  0  0  0
    6.1430   -6.3550   24.7290 C   0  0  0  0  0  0  0  0  0  0  0  0
    6.8550   -5.3390   25.3770 C   0  0  0  0  0  0  0  0  0  0  0  0
    7.3050   -4.2240   24.6540 C   0  0  0  0  0  0  0  0  0  0  0  0
    8.8030   -2.2690   22.9150 C   0  0  0  0  0  0  0  0  0  0  0  0
    9.2300   -1.0880   22.2870 C   0  0  0  0  0  0  0  0  0  0  0  0
   10.5780   -0.5060   22.6670 C   0  0  0  0  0  0  0  0  0  0  0  0
   11.6470   -1.3920   22.8750 C   0  0  0  0  0  0  0  0  0  0  0  0
   12.9020   -0.8850   23.2490 C   0  0  0  0  0  0  0  0  0  0  0  0
   13.1170    0.4760   23.4210 C   0  0  0  0  0  0  0  0  0  0  0  0
   12.0450    1.3590   23.2320 C   0  0  0  0  0  0  0  0  0  0  0  0
   11.3220    3.5900   22.9430 C   0  0  0  0  0  0  0  0  0  0  0  0
   11.8790    4.9990   23.1230 C   0  0  0  0  0  0  0  0  0  0  0  0
   13.0750    5.1880   22.1870 C   0  0  0  0  0  0  0  0  0  0  0  0
   10.7770    0.8790   22.8560 C   0  0  0  0  0  0  0  0  0  0  0  0
    7.1850   -0.9950   21.0050 N   0  0  0  0  0  0  0  0  0  0  0  0
    6.0570    0.2920   17.6950 N   0  0  0  0  0  0  0  0  0  0  0  0
    5.7460   -5.0540   20.0380 N   0  0  0  0  0  0  0  0  0  0  0  0
   14.2600   -1.9950   23.5110 Cl  0  0  0  0  0  0  0  0  0  0  0  0
  2  1  1  0
  2  3  1  1
  4  3  1  0
  5  4  1  0
  6  4  1  0
  8  7  1  0
 10  9  1  0
 12 11  1  0
 13 12  1  0
 13  9  1  0
 15  6  1  0
 16 15  1  0
 17 16  1  0
 17  3  1  0
 18  2  1  0
 19  8  1  0
 19 18  1  0
 20 19  1  0
 21 20  1  0
 22 21  1  0
 23 22  1  0
 24 23  1  0
 24 14  1  0
 25 14  1  0
 26 25  1  0
 27 26  1  0
 28 20  1  0
 28 24  1  0
 29  9  1  0
 29  8  1  0
 29  1  1  0
 30 11  1  0
 30 10  1  0
 31  5  1  0
 32 22  1  0
M  END
