
     RDKit          3D

 24 27  0  0  0  0  0  0  0  0999 V2000
    9.1610    0.9150   21.0790 O   0  0  0  0  0  0  0  0  0  0  0  0
    8.6820   -0.1750   21.3740 C   0  0  0  0  0  0  0  0  0  0  0  0
    9.1680   -0.9790   22.5820 C   0  0  2  0  0  0  0  0  0  0  0  0
    8.3650   -0.5560   23.8220 C   0  0  0  0  0  0  0  0  0  0  0  0
    8.8810    0.7610   24.3440 C   0  0  0  0  0  0  0  0  0  0  0  0
   10.2810    0.6860   24.6980 O   0  0  0  0  0  0  0  0  0  0  0  0
   10.6520   -0.7270   22.7510 C   0  0  0  0  0  0  0  0  0  0  0  0
   11.1110    0.1270   23.7580 C   0  0  0  0  0  0  0  0  0  0  0  0
   12.4580    0.4310   23.8910 C   0  0  0  0  0  0  0  0  0  0  0  0
   13.3750   -0.1330   23.0230 C   0  0  0  0  0  0  0  0  0  0  0  0
   11.5930   -1.3060   21.9030 C   0  0  0  0  0  0  0  0  0  0  0  0
   12.9320   -1.0060   22.0540 C   0  0  0  0  0  0  0  0  0  0  0  0
   14.0930   -1.7740   21.0090 Cl  0  0  0  0  0  0  0  0  0  0  0  0
    7.7100   -0.7700   20.6630 N   0  0  0  0  0  0  0  0  0  0  0  0
    6.7880   -0.2290   19.7580 C   0  0  0  0  0  0  0  0  0  0  0  0
    5.6690    0.5270   20.2310 C   0  0  0  0  0  0  0  0  0  0  0  0
    5.2530    0.5610   21.5900 C   0  0  0  0  0  0  0  0  0  0  0  0
    4.1440    1.2630   21.9690 C   0  0  0  0  0  0  0  0  0  0  0  0
    3.3960    1.9640   21.0340 C   0  0  0  0  0  0  0  0  0  0  0  0
    3.7580    1.9710   19.7180 C   0  0  0  0  0  0  0  0  0  0  0  0
    4.9030    1.2580   19.2810 C   0  0  0  0  0  0  0  0  0  0  0  0
    5.3230    1.2240   17.9290 C   0  0  0  0  0  0  0  0  0  0  0  0
    6.3850    0.5540   17.4970 N   0  0  0  0  0  0  0  0  0  0  0  0
    7.0750   -0.1600   18.3950 C   0  0  0  0  0  0  0  0  0  0  0  0
  2  1  2  0
  3  2  1  6
  4  3  1  0
  5  4  1  0
  6  5  1  0
  7  3  1  0
  8  7  2  0
  8  6  1  0
  9  8  1  0
 10  9  2  0
 11  7  1  0
 12 11  2  0
 12 10  1  0
 13 12  1  0
 14  2  1  0
 15 14  1  0
 16 15  1  0
 17 16  2  0
 18 17  1  0
 19 18  2  0
 20 19  1  0
 21 20  2  0
 21 16  1  0
 22 21  1  0
 23 22  2  0
 24 23  1  0
 24 15  2  0
M  END
