
     RDKit          3D

 16 17  0  0  0  0  0  0  0  0999 V2000
    9.4410    1.0610   21.0080 O   0  0  0  0  0  0  0  0  0  0  0  0
    8.8870    0.2680   21.7000 C   0  0  0  0  0  0  0  0  0  0  0  0
    9.4390   -0.2150   23.0350 C   0  0  0  0  0  0  0  0  0  0  0  0
   10.9570   -0.1210   23.1010 C   0  0  2  0  0  0  0  0  0  0  0  0
   11.6090   -1.0680   22.0940 C   0  0  0  0  0  0  0  0  0  0  0  0
   12.8560   -1.7610   22.6390 C   0  0  0  0  0  0  0  0  0  0  0  0
   13.6670   -0.9270   23.6200 C   0  0  0  0  0  0  0  0  0  0  0  0
   12.8390   -0.2180   24.6850 C   0  0  0  0  0  0  0  0  0  0  0  0
   11.3410   -0.4440   24.5340 C   0  0  0  0  0  0  0  0  0  0  0  0
    7.6300   -0.2880   21.3130 N   0  0  0  0  0  0  0  0  0  0  0  0
    7.0140    0.1450   20.0950 C   0  0  0  0  0  0  0  0  0  0  0  0
    5.7600    0.7360   20.2110 C   0  0  0  0  0  0  0  0  0  0  0  0
    5.1580    1.1650   19.0340 C   0  0  0  0  0  0  0  0  0  0  0  0
    5.8400    0.9870   17.8380 C   0  0  0  0  0  0  0  0  0  0  0  0
    7.0400    0.4270   17.7960 N   0  0  0  0  0  0  0  0  0  0  0  0
    7.6540    0.0040   18.8790 C   0  0  0  0  0  0  0  0  0  0  0  0
  2  1  2  0
  3  2  1  0
  4  3  1  1
  5  4  1  0
  6  5  1  0
  7  6  1  0
  8  7  1  0
  9  8  1  0
  9  4  1  0
 10  2  1  0
 11 10  1  0
 12 11  2  0
 13 12  1  0
 14 13  2  0
 15 14  1  0
 16 15  2  0
 16 11  1  0
M  END
