
     RDKit          3D

 21 23  0  0  0  0  0  0  0  0999 V2000
   22.6920    5.3320   23.9910 N   0  0  0  0  0  0  0  0  0  0  0  0
   22.7620    4.6810   25.1400 C   0  0  0  0  0  0  0  0  0  0  0  0
   21.9280    4.8120   26.0350 O   0  0  0  0  0  0  0  0  0  0  0  0
   23.9270    3.7290   25.2950 C   0  0  2  0  0  0  0  0  0  0  0  0
   23.9840    1.3770   25.8540 N   0  0  0  0  0  0  0  0  0  0  0  0
   23.5700    2.3250   24.8120 C   0  0  0  0  0  0  0  0  0  0  0  0
   21.1230   -1.6980   25.5520 N   0  0  0  0  0  0  0  0  0  0  0  0
   24.4300    0.0870   25.3210 C   0  0  0  0  0  0  0  0  0  0  0  0
   23.2330   -0.7320   24.9160 C   0  0  0  0  0  0  0  0  0  0  0  0
   22.9460   -0.9950   23.5900 C   0  0  0  0  0  0  0  0  0  0  0  0
   21.7470   -1.5880   23.2530 C   0  0  0  0  0  0  0  0  0  0  0  0
   20.8670   -1.9140   24.2610 C   0  0  0  0  0  0  0  0  0  0  0  0
   22.2880   -1.1180   25.8510 C   0  0  0  0  0  0  0  0  0  0  0  0
   24.9820    2.1020   26.6490 C   0  0  0  0  0  0  0  0  0  0  0  0
   24.3180    3.4710   26.7750 C   0  0  1  0  0  0  0  0  0  0  0  0
   25.1920    4.5300   27.4090 C   0  0  0  0  0  0  0  0  0  0  0  0
   25.2270    4.6830   28.7860 C   0  0  0  0  0  0  0  0  0  0  0  0
   25.9550    5.7080   29.3630 C   0  0  0  0  0  0  0  0  0  0  0  0
   26.6650    6.5840   28.5710 C   0  0  0  0  0  0  0  0  0  0  0  0
   26.6540    6.4320   27.2030 C   0  0  0  0  0  0  0  0  0  0  0  0
   25.9270    5.4070   26.6240 C   0  0  0  0  0  0  0  0  0  0  0  0
  2  1  1  0
  3  2  2  0
  4  2  1  1
  6  5  1  0
  6  4  1  0
  8  5  1  0
  9  8  1  0
 10  9  1  0
 11 10  2  0
 12 11  1  0
 12  7  2  0
 13  7  1  0
 13  9  2  0
 14  5  1  0
 15 14  1  0
 15  4  1  0
 15 16  1  6
 17 16  2  0
 18 17  1  0
 19 18  2  0
 20 19  1  0
 21 16  1  0
 21 20  2  0
M  END
