
     RDKit          3D

 16 17  0  0  0  0  0  0  0  0999 V2000
   38.9100   42.2060   -3.2970 O   0  0  0  0  0  0  0  0  0  0  0  0
   37.7940   42.4490   -2.8370 C   0  0  0  0  0  0  0  0  0  0  0  0
   37.0090   43.6290   -3.3150 C   0  0  0  0  0  0  0  0  0  0  0  0
   35.6430   43.9330   -3.2210 C   0  0  0  0  0  0  0  0  0  0  0  0
   35.3600   45.1190   -3.7390 N   0  0  0  0  0  0  0  0  0  0  0  0
   37.5520   44.7300   -3.9480 C   0  0  0  0  0  0  0  0  0  0  0  0
   36.5500   45.5880   -4.1810 N   0  0  0  0  0  0  0  0  0  0  0  0
   36.6390   46.9140   -4.7760 C   0  0  0  0  0  0  0  0  0  0  0  0
   37.1820   41.7310   -1.8550 N   0  0  0  0  0  0  0  0  0  0  0  0
   37.6570   40.5820   -1.1760 C   0  0  0  0  0  0  0  0  0  0  0  0
   37.1590   40.2440    0.0750 C   0  0  0  0  0  0  0  0  0  0  0  0
   37.5190   39.0510    0.6720 C   0  0  0  0  0  0  0  0  0  0  0  0
   38.3900   38.1880    0.0260 C   0  0  0  0  0  0  0  0  0  0  0  0
   38.7070   36.9790    0.5700 O   0  0  0  0  0  0  0  0  0  0  0  0
   38.9190   38.5360   -1.2060 C   0  0  0  0  0  0  0  0  0  0  0  0
   38.5530   39.7280   -1.8020 C   0  0  0  0  0  0  0  0  0  0  0  0
  2  1  2  0
  3  2  1  0
  4  3  1  0
  5  4  2  0
  6  3  2  0
  7  6  1  0
  7  5  1  0
  8  7  1  0
  9  2  1  0
 10  9  1  0
 11 10  2  0
 12 11  1  0
 13 12  2  0
 14 13  1  0
 15 13  1  0
 16 10  1  0
 16 15  2  0
M  END
