
     RDKit          3D

  3  2  0  0  0  0  0  0  0  0999 V2000
    7.6560   -5.5220   22.6920 S   0  0  0  0  0  0  0  0  0  0  0  0
    8.9300   -3.9980   21.5580 Zn  0  0  0  0  0  2  0  0  0  0  0  0
    8.2420   -2.6280   23.2600 S   0  0  0  0  0  0  0  0  0  0  0  0
  2  1  1  0
  3  2  1  0
M  END
