
     RDKit          3D

 11 12  0  0  0  0  0  0  0  0999 V2000
    0.7130   38.2120    2.2930 C   0  0  0  0  0  0  0  0  0  0  0  0
    0.9400   39.5170    1.9050 C   0  0  0  0  0  0  0  0  0  0  0  0
    2.2600   39.5470    1.4210 C   0  0  0  0  0  0  0  0  0  0  0  0
    2.9150   40.8360    0.9010 C   0  0  2  0  0  0  0  0  0  0  0  0
    3.0340   40.8310   -0.5730 C   0  0  0  0  0  0  0  0  0  0  0  0
    3.4070   42.2700   -0.9370 C   0  0  0  0  0  0  0  0  0  0  0  0
    4.7700   42.6320   -0.4590 N   0  0  0  0  0  0  0  0  0  0  0  0
    5.1910   41.9920    0.8400 C   0  0  0  0  0  0  0  0  0  0  0  0
    4.2230   41.0310    1.5530 C   0  0  0  0  0  0  0  0  0  0  0  0
    2.7880   38.3150    1.5220 N   0  0  0  0  0  0  0  0  0  0  0  0
    1.8360   37.5080    2.0510 N   0  0  0  0  0  0  0  0  0  0  0  0
  2  1  2  0
  3  2  1  0
  4  3  1  1
  5  4  1  0
  6  5  1  0
  7  6  1  0
  8  7  1  0
  9  8  1  0
  9  4  1  0
 10  3  2  0
 11 10  1  0
 11  1  1  0
M  END
