
     RDKit          3D

 17 18  0  0  0  0  0  0  0  0999 V2000
   22.0830   25.6660    9.1970 O   0  0  0  0  0  0  0  0  0  0  0  0
   20.8720   25.5680    9.0210 C   0  0  0  0  0  0  0  0  0  0  0  0
   19.9070   25.5120   10.1700 C   0  0  0  0  0  0  0  0  0  0  0  0
   20.3420   25.4970    7.7970 N   0  0  0  0  0  0  0  0  0  0  0  0
   21.1340   25.3520    6.5870 C   0  0  0  0  0  0  0  0  0  0  0  0
   21.2160   26.6140    5.7110 C   0  0  1  0  0  0  0  0  0  0  0  0
   22.2940   26.3680    4.6280 C   0  0  0  0  0  0  0  0  0  0  0  0
   22.2320   27.4130    3.5300 C   0  0  0  0  0  0  0  0  0  0  0  0
   20.9310   27.4900    2.9410 O   0  0  0  0  0  0  0  0  0  0  0  0
   19.9600   27.8780    3.9080 C   0  0  0  0  0  0  0  0  0  0  0  0
   19.8490   26.8650    5.0280 C   0  0  0  0  0  0  0  0  0  0  0  0
   21.6020   27.8120    6.5960 C   0  0  1  0  0  0  0  0  0  0  0  0
   20.6260   28.6210    7.1780 C   0  0  0  0  0  0  0  0  0  0  0  0
   20.9780   29.6410    8.0490 C   0  0  0  0  0  0  0  0  0  0  0  0
   22.3080   29.8760    8.3420 C   0  0  0  0  0  0  0  0  0  0  0  0
   23.2860   29.0880    7.7690 C   0  0  0  0  0  0  0  0  0  0  0  0
   22.9390   28.0630    6.9040 C   0  0  0  0  0  0  0  0  0  0  0  0
  2  1  1  0
  3  2  1  0
  4  2  1  0
  5  4  1  0
  6  5  1  1
  7  6  1  0
  8  7  1  0
  9  8  1  0
 10  9  1  0
 11  6  1  0
 11 10  1  0
 12  6  1  0
 12 13  1  1
 14 13  1  0
 15 14  1  0
 16 15  1  0
 17 12  1  0
 17 16  1  0
M  END
$$$$
