
     RDKit          3D

 11 11  0  0  0  0  0  0  0  0999 V2000
   -0.1530    6.6280  -11.4220 N   0  0  0  0  0  0  0  0  0  0  0  0
    0.6660    6.6250  -10.2210 C   0  0  2  0  0  0  0  0  0  0  0  0
   -0.4160    2.7910   -8.0040 C   0  0  0  0  0  0  0  0  0  0  0  0
    1.7260    7.7770  -10.2290 C   0  0  0  0  0  0  0  0  0  0  0  0
    2.3190    8.0060   -9.0900 O   0  0  0  0  0  0  0  0  0  0  0  0
    0.7020    2.0780   -8.6750 N   0  0  0  0  0  0  0  0  0  0  0  0
    2.1000    2.3890  -10.4440 O   0  0  0  0  0  0  0  0  0  0  0  0
    1.4190    5.2740  -10.0190 C   0  0  0  0  0  0  0  0  0  0  0  0
    0.4630    4.1080   -9.8080 C   0  0  2  0  0  0  0  0  0  0  0  0
   -0.4850    4.1810   -8.5550 C   0  0  0  0  0  0  0  0  0  0  0  0
    1.2330    2.7550   -9.7260 C   0  0  0  0  0  0  0  0  0  0  0  0
  2  1  1  6
  4  2  1  0
  5  4  2  0
  6  3  1  0
  8  2  1  0
  9  8  1  1
 10  9  1  0
 10  3  1  0
 11  9  1  0
 11  7  2  0
 11  6  1  0
M  END
