
     RDKit          3D

 43 45  0  0  0  0  0  0  0  0999 V2000
   13.1740    6.7320   26.0890 C   0  0  0  0  0  0  0  0  0  0  0  0
   13.2890    6.8550   24.6970 C   0  0  0  0  0  0  0  0  0  0  0  0
   12.9790    8.0700   24.0900 C   0  0  0  0  0  0  0  0  0  0  0  0
   12.5380    9.1510   24.8640 C   0  0  0  0  0  0  0  0  0  0  0  0
   12.4160    9.0220   26.2420 C   0  0  0  0  0  0  0  0  0  0  0  0
   12.7400    7.8110   26.8510 C   0  0  0  0  0  0  0  0  0  0  0  0
   13.7810    5.6650   23.8550 C   0  0  0  0  0  0  0  0  0  0  0  0
   12.7760    5.1750   22.9880 O   0  0  0  0  0  0  0  0  0  0  0  0
   11.8250    4.2690   23.4810 C   0  0  0  0  0  0  0  0  0  0  0  0
   10.6390    4.0250   22.6940 N   0  0  0  0  0  0  0  0  0  0  0  0
    9.6120    3.2080   23.2680 C   0  0  2  0  0  0  0  0  0  0  0  0
    9.6550    1.8720   22.5470 C   0  0  0  0  0  0  0  0  0  0  0  0
    9.8190    0.6440   23.2920 N   0  0  0  0  0  0  0  0  0  0  0  0
    9.8360   -0.6340   22.6710 C   0  0  2  0  0  0  0  0  0  0  0  0
    8.4720   -1.0180   22.1160 C   0  0  0  0  0  0  0  0  0  0  0  0
    8.4070   -1.6860   20.8650 N   0  0  0  0  0  0  0  0  0  0  0  0
    7.1520   -2.0920   20.2860 C   0  0  2  0  0  0  0  0  0  0  0  0
    7.3750   -3.4590   19.7630 C   0  0  0  0  0  0  0  0  0  0  0  0
    6.1120   -4.0820   19.8890 O   0  0  0  0  0  0  0  0  0  0  0  0
    6.7330   -1.1730   19.1250 C   0  0  0  0  0  0  0  0  0  0  0  0
    6.4370    0.2320   19.5590 C   0  0  2  0  0  0  0  0  0  0  0  0
    5.1990    0.2780   20.4580 C   0  0  0  0  0  0  0  0  0  0  0  0
    4.6770    1.7330   20.2260 C   0  0  0  0  0  0  0  0  0  0  0  0
    5.0160    2.0110   18.8570 N   0  0  0  0  0  0  0  0  0  0  0  0
    6.1160    1.0870   18.3850 C   0  0  0  0  0  0  0  0  0  0  0  0
    6.6090    1.0910   17.2640 O   0  0  0  0  0  0  0  0  0  0  0  0
    7.4780   -0.8140   22.7330 O   0  0  0  0  0  0  0  0  0  0  0  0
   10.3840   -1.7610   23.5410 C   0  0  0  0  0  0  0  0  0  0  0  0
   11.6170   -1.3870   24.4020 C   0  0  2  0  0  0  0  0  0  0  0  0
   12.7380   -0.8720   23.4810 C   0  0  0  0  0  0  0  0  0  0  0  0
   14.1190   -0.9270   24.1520 C   0  0  0  0  0  0  0  0  0  0  0  0
   14.4190   -2.3280   24.7100 C   0  0  0  0  0  0  0  0  0  0  0  0
   13.3770   -2.8370   25.7020 C   0  0  0  0  0  0  0  0  0  0  0  0
   11.9240   -2.6310   25.2630 C   0  0  0  0  0  0  0  0  0  0  0  0
    9.5580    1.8370   21.3820 O   0  0  0  0  0  0  0  0  0  0  0  0
    8.3030    3.9650   23.0670 C   0  0  1  0  0  0  0  0  0  0  0  0
    7.1260    3.0800   23.4760 C   0  0  0  0  0  0  0  0  0  0  0  0
    8.3970    5.2060   23.8100 O   0  0  0  0  0  0  0  0  0  0  0  0
    7.8590    6.4110   23.3000 C   0  0  1  0  0  0  0  0  0  0  0  0
    7.8260    7.4360   24.4330 C   0  0  0  0  0  0  0  0  0  0  0  0
    8.7700    7.0050   22.2350 C   0  0  0  0  0  0  0  0  0  0  0  0
    6.4580    6.2230   22.6960 C   0  0  0  0  0  0  0  0  0  0  0  0
   11.9400    3.7030   24.5230 O   0  0  0  0  0  0  0  0  0  0  0  0
  2  1  2  0
  3  2  1  0
  4  3  2  0
  5  4  1  0
  6  5  2  0
  6  1  1  0
  7  2  1  0
  8  7  1  0
  9  8  1  0
 10  9  1  0
 11 10  1  6
 12 11  1  0
 13 12  1  0
 14 13  1  0
 15 14  1  0
 16 15  1  0
 17 16  1  0
 17 18  1  6
 19 18  1  0
 20 17  1  0
 21 20  1  6
 22 21  1  0
 23 22  1  0
 24 23  1  0
 25 24  1  0
 25 21  1  0
 26 25  2  0
 27 15  2  0
 14 28  1  1
 29 28  1  6
 30 29  1  0
 31 30  1  0
 32 31  1  0
 33 32  1  0
 34 33  1  0
 34 29  1  0
 35 12  2  0
 36 11  1  0
 36 37  1  1
 38 36  1  0
 39 38  1  0
 39 40  1  1
 41 39  1  0
 42 39  1  0
 43  9  2  0
M  END
