
     RDKit          3D

 24 26  0  0  0  0  0  0  0  0999 V2000
    6.3230    0.5630   17.5400 N   0  0  0  0  0  0  0  0  0  0  0  0
    5.4140    0.7160   21.7560 C   0  0  0  0  0  0  0  0  0  0  0  0
    9.2030    1.0310   21.0280 O   0  0  0  0  0  0  0  0  0  0  0  0
    5.7270    0.6190   20.2850 C   0  0  0  0  0  0  0  0  0  0  0  0
    7.7550   -0.6940   20.7060 N   0  0  0  0  0  0  0  0  0  0  0  0
    5.3660    0.6030   26.3520 O   0  0  0  0  0  0  0  0  0  0  0  0
    4.9110    1.2480   19.3490 C   0  0  0  0  0  0  0  0  0  0  0  0
    8.8230   -0.3050   24.1490 N   0  0  0  0  0  0  0  0  0  0  0  0
    5.2420    1.1940   18.0090 C   0  0  0  0  0  0  0  0  0  0  0  0
    7.1070   -0.0560   18.4280 C   0  0  0  0  0  0  0  0  0  0  0  0
    6.8630   -0.0620   19.8030 C   0  0  0  0  0  0  0  0  0  0  0  0
    8.8870   -0.1430   21.2010 C   0  0  0  0  0  0  0  0  0  0  0  0
    9.7710   -1.1040   21.9830 C   0  0  0  0  0  0  0  0  0  0  0  0
   10.0710   -0.6620   23.4260 C   0  0  2  0  0  0  0  0  0  0  0  0
    9.0070    0.5230   25.3510 C   0  0  0  0  0  0  0  0  0  0  0  0
    7.6730    1.1060   25.8270 C   0  0  0  0  0  0  0  0  0  0  0  0
    6.6440    0.0150   26.0690 C   0  0  2  0  0  0  0  0  0  0  0  0
    6.5350   -0.9300   24.8850 C   0  0  0  0  0  0  0  0  0  0  0  0
    7.9140   -1.4260   24.4420 C   0  0  0  0  0  0  0  0  0  0  0  0
   11.0190   -1.5470   24.1980 C   0  0  0  0  0  0  0  0  0  0  0  0
   10.7330   -2.8710   24.6400 C   0  0  0  0  0  0  0  0  0  0  0  0
   11.7830   -3.4720   25.3170 C   0  0  0  0  0  0  0  0  0  0  0  0
   12.2930   -1.1800   24.5460 C   0  0  0  0  0  0  0  0  0  0  0  0
   13.1180   -2.4240   25.3910 S   0  0  0  0  0  0  0  0  0  0  0  0
  4  2  1  0
  7  4  2  0
  9  7  1  0
  9  1  2  0
 10  1  1  0
 11 10  2  0
 11  5  1  0
 11  4  1  0
 12  5  1  0
 12  3  2  0
 13 12  1  0
 14 13  1  6
 14  8  1  0
 15  8  1  0
 16 15  1  0
 17  6  1  6
 17 16  1  0
 18 17  1  0
 19 18  1  0
 19  8  1  0
 20 14  1  0
 21 20  1  0
 22 21  2  0
 23 20  2  0
 24 23  1  0
 24 22  1  0
M  END
