
     RDKit          3D

 15 16  0  0  0  0  0  0  0  0999 V2000
   11.8120   27.1600  -16.3760 Cl  0  0  0  0  0  0  0  0  0  0  0  0
   12.8160   28.0180  -15.2490 C   0  0  0  0  0  0  0  0  0  0  0  0
   13.7060   27.3210  -14.4520 C   0  0  0  0  0  0  0  0  0  0  0  0
   14.4560   27.9140  -13.5240 N   0  0  0  0  0  0  0  0  0  0  0  0
   14.3150   29.2330  -13.4420 C   0  0  0  0  0  0  0  0  0  0  0  0
   13.5200   30.0250  -14.1710 N   0  0  0  0  0  0  0  0  0  0  0  0
   12.7560   29.4040  -15.0890 C   0  0  0  0  0  0  0  0  0  0  0  0
   11.9600   30.2170  -15.8650 N   0  0  0  0  0  0  0  0  0  0  0  0
   11.2200   29.7330  -17.0260 C   0  0  0  0  0  0  0  0  0  0  0  0
   11.8510   31.6560  -15.6330 C   0  0  0  0  0  0  0  0  0  0  0  0
   10.7590   32.0540  -14.6510 C   0  0  1  0  0  0  0  0  0  0  0  0
   11.0900   33.2970  -13.8470 C   0  0  0  0  0  0  0  0  0  0  0  0
    9.8340   33.7360  -13.3550 O   0  0  0  0  0  0  0  0  0  0  0  0
    8.9240   33.5990  -14.4430 C   0  0  0  0  0  0  0  0  0  0  0  0
    9.4490   32.4760  -15.3250 C   0  0  0  0  0  0  0  0  0  0  0  0
  2  1  1  0
  3  2  2  0
  4  3  1  0
  5  4  2  0
  6  5  1  0
  7  6  2  0
  7  2  1  0
  8  7  1  0
  9  8  1  0
 10  8  1  0
 11 10  1  6
 12 11  1  0
 13 12  1  0
 14 13  1  0
 15 11  1  0
 15 14  1  0
M  END
