
     RDKit          3D

 11 11  0  0  0  0  0  0  0  0999 V2000
    8.5340   -0.0770   27.4360 C   0  0  0  0  0  0  0  0  0  0  0  0
    9.0890   -0.6240   26.1390 C   0  0  0  0  0  0  0  0  0  0  0  0
   11.0500   -0.2610   24.6290 C   0  0  0  0  0  0  0  0  0  0  0  0
   10.6940   -1.3910   23.9040 C   0  0  0  0  0  0  0  0  0  0  0  0
   11.4810   -1.8050   22.8480 C   0  0  0  0  0  0  0  0  0  0  0  0
   12.6130   -1.0720   22.5400 C   0  0  0  0  0  0  0  0  0  0  0  0
   13.5050   -1.5120   21.3870 C   0  0  0  0  0  0  0  0  0  0  0  0
   12.9120    0.0500   23.3100 C   0  0  0  0  0  0  0  0  0  0  0  0
   10.2250    0.1790   25.7280 N   0  0  0  0  0  0  0  0  0  0  0  0
   14.1860   -1.8150   20.5300 N   0  0  0  0  0  0  0  0  0  0  0  0
   12.1330    0.4270   24.3230 N   0  0  0  0  0  0  0  0  0  0  0  0
  2  1  1  0
  4  3  2  0
  5  4  1  0
  6  5  2  0
  7  6  1  0
  8  6  1  0
  9  2  1  0
  9  3  1  0
 10  7  3  0
 11  8  2  0
 11  3  1  0
M  END
