
     RDKit          3D

 17 18  0  0  0  0  0  0  0  0999 V2000
    5.6610    1.0090   19.3470 N   0  0  0  0  0  0  0  0  0  0  0  0
    4.9780    1.7290   20.4200 C   0  0  0  0  0  0  0  0  0  0  0  0
    8.7820    1.0470   20.9900 O   0  0  0  0  0  0  0  0  0  0  0  0
   13.5750   -1.7770   21.3910 Cl  0  0  0  0  0  0  0  0  0  0  0  0
    5.5230    1.2240   18.0170 C   0  0  0  0  0  0  0  0  0  0  0  0
    6.3600    0.5090   17.2940 N   0  0  0  0  0  0  0  0  0  0  0  0
    7.0780   -0.2320   18.2050 C   0  0  0  0  0  0  0  0  0  0  0  0
    7.1230   -0.4840   20.6600 N   0  0  0  0  0  0  0  0  0  0  0  0
    6.6550    0.0560   19.4610 C   0  0  0  0  0  0  0  0  0  0  0  0
    8.1970    0.0230   21.3360 C   0  0  0  0  0  0  0  0  0  0  0  0
    8.6010   -0.7530   22.5750 C   0  0  0  0  0  0  0  0  0  0  0  0
   10.0700   -0.5330   22.8580 C   0  0  2  0  0  0  0  0  0  0  0  0
   10.4790    0.4270   23.7720 C   0  0  0  0  0  0  0  0  0  0  0  0
   11.8220    0.7310   23.9340 C   0  0  0  0  0  0  0  0  0  0  0  0
   12.7820    0.0730   23.1850 C   0  0  0  0  0  0  0  0  0  0  0  0
   12.3750   -0.9010   22.3010 C   0  0  0  0  0  0  0  0  0  0  0  0
   11.0390   -1.2160   22.1260 C   0  0  0  0  0  0  0  0  0  0  0  0
  2  1  1  0
  5  1  1  0
  6  5  1  0
  7  6  1  0
  9  8  1  0
  9  7  1  0
  9  1  1  0
 10  8  1  0
 10  3  1  0
 11 10  1  0
 12 11  1  6
 13 12  1  0
 14 13  1  0
 15 14  1  0
 16  4  1  0
 16 15  1  0
 17 12  1  0
 17 16  1  0
M  END
$$$$
