
     RDKit          3D

  8  8  0  0  0  0  0  0  0  0999 V2000
    6.1580   -5.1330   19.7100 N   0  0  0  0  0  0  0  0  0  0  0  0
    7.0190   -4.2520   20.0770 C   0  0  0  0  0  0  0  0  0  0  0  0
    6.6240   -3.3530   21.1570 C   0  0  0  0  0  0  0  0  0  0  0  0
    7.4230   -2.4010   21.6810 N   0  0  0  0  0  0  0  0  0  0  0  0
    6.7150   -1.7560   22.6520 C   0  0  0  0  0  0  0  0  0  0  0  0
    5.5000   -2.3400   22.6810 C   0  0  0  0  0  0  0  0  0  0  0  0
    5.4320   -3.3450   21.7440 N   0  0  0  0  0  0  0  0  0  0  0  0
    8.3130   -3.6820   18.8630 S   0  0  0  0  0  0  0  0  0  0  0  0
  2  1  1  0
  3  2  1  0
  4  3  1  0
  5  4  1  0
  6  5  1  0
  7  3  1  0
  7  6  1  0
  2  8  1  0
M  END
$$$$
