
     RDKit          3D

 18 19  0  0  0  0  0  0  0  0999 V2000
   28.9930   54.5280   -6.0940 O   0  0  0  0  0  0  0  0  0  0  0  0
   28.5290   54.2220   -7.1940 C   0  0  0  0  0  0  0  0  0  0  0  0
   28.3740   52.9350   -7.6360 N   0  0  0  0  0  0  0  0  0  0  0  0
   28.7420   51.7470   -6.9850 C   0  0  0  0  0  0  0  0  0  0  0  0
   29.0810   51.6970   -5.6410 C   0  0  0  0  0  0  0  0  0  0  0  0
   29.4660   50.4800   -5.1130 C   0  0  0  0  0  0  0  0  0  0  0  0
   29.5290   49.3460   -5.8220 N   0  0  0  0  0  0  0  0  0  0  0  0
   29.1770   49.4170   -7.1110 C   0  0  0  0  0  0  0  0  0  0  0  0
   28.7780   50.5830   -7.7360 C   0  0  0  0  0  0  0  0  0  0  0  0
   28.0540   55.1160   -8.1170 N   0  0  0  0  0  0  0  0  0  0  0  0
   27.8290   56.5070   -7.9870 C   0  0  2  0  0  0  0  0  0  0  0  0
   27.7230   57.1810   -6.7710 C   0  0  0  0  0  0  0  0  0  0  0  0
   27.4350   58.5350   -6.7460 C   0  0  0  0  0  0  0  0  0  0  0  0
   27.6410   57.2060   -9.1770 C   0  0  0  0  0  0  0  0  0  0  0  0
   27.3440   58.5570   -9.1550 C   0  0  0  0  0  0  0  0  0  0  0  0
   27.2350   59.2230   -7.9380 C   0  0  1  0  0  0  0  0  0  0  0  0
   26.8640   60.5430   -7.8370 O   0  0  0  0  0  0  0  0  0  0  0  0
   26.5380   61.2600   -9.0330 C   0  0  0  0  0  0  0  0  0  0  0  0
  2  1  1  0
  3  2  1  0
  4  3  1  0
  5  4  1  0
  6  5  1  0
  7  6  1  0
  8  7  1  0
  9  8  1  0
  9  4  1  0
 10  2  1  0
 11 10  1  1
 12 11  1  0
 13 12  1  0
 14 11  1  0
 15 14  1  0
 16 15  1  0
 16 13  1  0
 16 17  1  1
 18 17  1  0
M  END
$$$$
