
     RDKit          3D

  9  8  0  0  0  0  0  0  0  0999 V2000
   -2.7700    1.6010  -13.1890 C   0  0  0  0  0  0  0  0  0  0  0  0
   -1.5580    2.2990  -12.5460 C   0  0  0  0  0  0  0  0  0  0  0  0
   -0.5130    2.6870  -13.5810 C   0  0  0  0  0  0  0  0  0  0  0  0
   -0.7300    4.0630  -14.3070 C   0  0  2  0  0  0  0  0  0  0  0  0
   -1.9680    4.4710  -14.2670 N   0  0  0  0  0  0  0  0  0  0  0  0
   -0.2690    3.8800  -15.9270 C   0  0  2  0  0  0  0  0  0  0  0  0
    1.0710    4.2740  -15.8020 O   0  0  0  0  0  0  0  0  0  0  0  0
   -0.9600    4.9680  -16.9140 C   0  0  0  0  0  0  0  0  0  0  0  0
   -2.1160    5.0280  -17.1860 O   0  0  0  0  0  0  0  0  0  0  0  0
  2  1  1  0
  3  2  1  0
  4  3  1  0
  4  5  1  6
  6  4  1  0
  6  7  1  1
  8  6  1  0
  9  8  1  0
M  END
$$$$
