
     RDKit          3D

 18 19  0  0  0  0  0  0  0  0999 V2000
    6.8390   -0.7610   20.7560 N   0  0  0  0  0  0  0  0  0  0  0  0
   13.6440   -0.0420   23.4620 C   0  0  0  0  0  0  0  0  0  0  0  0
    8.6210    0.5540   21.2730 O   0  0  0  0  0  0  0  0  0  0  0  0
   12.2270   -0.5260   23.3750 C   0  0  0  0  0  0  0  0  0  0  0  0
    6.3750    0.6220   17.3960 N   0  0  0  0  0  0  0  0  0  0  0  0
   11.8280   -1.3830   22.3650 C   0  0  0  0  0  0  0  0  0  0  0  0
   10.5060   -1.7510   22.2250 C   0  0  0  0  0  0  0  0  0  0  0  0
    9.5370   -1.2480   23.0750 C   0  0  0  0  0  0  0  0  0  0  0  0
    8.0860   -1.3350   22.6960 C   0  0  0  0  0  0  0  0  0  0  0  0
    7.8910   -0.4220   21.5020 C   0  0  0  0  0  0  0  0  0  0  0  0
    6.3250    0.0170   19.7100 C   0  0  0  0  0  0  0  0  0  0  0  0
    6.8700   -0.0540   18.4360 C   0  0  0  0  0  0  0  0  0  0  0  0
    5.2960    1.3820   17.6110 C   0  0  0  0  0  0  0  0  0  0  0  0
    4.6970    1.5210   18.8440 C   0  0  0  0  0  0  0  0  0  0  0  0
    5.2250    0.8540   19.9380 C   0  0  0  0  0  0  0  0  0  0  0  0
    4.6760    1.0950   21.3220 C   0  0  0  0  0  0  0  0  0  0  0  0
    9.9420   -0.4400   24.1240 C   0  0  0  0  0  0  0  0  0  0  0  0
   11.2680   -0.0850   24.2700 C   0  0  0  0  0  0  0  0  0  0  0  0
  4  2  1  0
  6  4  2  0
  7  6  1  0
  8  7  2  0
  9  8  1  0
 10  3  2  0
 10  1  1  0
 10  9  1  0
 11  1  1  0
 12 11  1  0
 12  5  2  0
 13  5  1  0
 14 13  2  0
 15 14  1  0
 15 11  2  0
 16 15  1  0
 17  8  1  0
 18 17  2  0
 18  4  1  0
M  END
