
     RDKit          3D

 11 12  0  0  0  0  0  0  0  0999 V2000
   27.9270   52.1920   -8.8810 N   0  0  0  0  0  0  0  0  0  0  0  0
   28.4020   52.8980   -7.7380 C   0  0  0  0  0  0  0  0  0  0  0  0
   28.5030   54.2080   -7.6680 N   0  0  0  0  0  0  0  0  0  0  0  0
   29.0100   54.6760   -6.5440 C   0  0  0  0  0  0  0  0  0  0  0  0
   29.4210   53.9330   -5.5460 N   0  0  0  0  0  0  0  0  0  0  0  0
   29.3020   52.5980   -5.5980 C   0  0  0  0  0  0  0  0  0  0  0  0
   29.7260   51.7330   -4.5300 C   0  0  0  0  0  0  0  0  0  0  0  0
   29.7000   50.3700   -4.6210 C   0  0  0  0  0  0  0  0  0  0  0  0
   29.2080   49.8070   -5.7990 C   0  0  0  0  0  0  0  0  0  0  0  0
   28.7760   50.5880   -6.8140 C   0  0  0  0  0  0  0  0  0  0  0  0
   28.8060   52.0240   -6.7090 C   0  0  2  0  0  0  0  0  0  0  0  0
  2  1  1  0
  3  2  1  0
  4  3  1  0
  5  4  1  0
  6  5  1  0
  7  6  1  0
  8  7  1  0
  9  8  1  0
 10  9  1  0
 11 10  1  6
 11  6  1  0
 11  2  1  0
M  END
$$$$
