
     RDKit          3D

 18 19  0  0  0  0  0  0  0  0999 V2000
    2.9360    1.4600   24.1960 O   0  0  0  0  0  0  0  0  0  0  0  0
    2.9740    2.3030   23.3480 C   0  0  0  0  0  0  0  0  0  0  0  0
    4.1180    2.4380   22.4620 N   0  0  0  0  0  0  0  0  0  0  0  0
    5.2510    1.5420   22.5440 C   0  0  0  0  0  0  0  0  0  0  0  0
    4.9250    0.3070   21.7090 C   0  0  0  0  0  0  0  0  0  0  0  0
    5.3520    0.4220   20.2460 C   0  0  0  0  0  0  0  0  0  0  0  0
    6.4220   -0.3490   19.7890 C   0  0  0  0  0  0  0  0  0  0  0  0
    6.8060   -0.2370   18.4590 C   0  0  0  0  0  0  0  0  0  0  0  0
    6.1700    0.5720   17.6420 N   0  0  0  0  0  0  0  0  0  0  0  0
    5.1350    1.3100   18.0500 C   0  0  0  0  0  0  0  0  0  0  0  0
    4.6830    1.2750   19.3650 C   0  0  0  0  0  0  0  0  0  0  0  0
    1.8960    3.2480   23.1350 N   0  0  0  0  0  0  0  0  0  0  0  0
    0.6980    3.2900   23.9460 C   0  0  1  0  0  0  0  0  0  0  0  0
    0.5890    4.7300   24.4530 C   0  0  0  0  0  0  0  0  0  0  0  0
   -0.7330    4.9830   25.1600 C   0  0  0  0  0  0  0  0  0  0  0  0
   -1.9010    4.6690   24.2350 C   0  0  0  0  0  0  0  0  0  0  0  0
   -1.8470    3.2360   23.7200 C   0  0  0  0  0  0  0  0  0  0  0  0
   -0.4940    2.8800   23.0930 C   0  0  0  0  0  0  0  0  0  0  0  0
  2  1  1  0
  3  2  1  0
  4  3  1  0
  5  4  1  0
  6  5  1  0
  7  6  1  0
  8  7  1  0
  9  8  1  0
 10  9  1  0
 11 10  1  0
 11  6  1  0
 12  2  1  0
 13 12  1  6
 14 13  1  0
 15 14  1  0
 16 15  1  0
 17 16  1  0
 18 17  1  0
 18 13  1  0
M  END
$$$$
