
     RDKit          3D

 18 19  0  0  0  0  0  0  0  0999 V2000
   11.0670    0.0910   23.8470 C   0  0  0  0  0  0  0  0  0  0  0  0
   13.9060   -1.5900   21.4260 F   0  0  0  0  0  0  0  0  0  0  0  0
    6.6120    0.5380   17.6010 N   0  0  0  0  0  0  0  0  0  0  0  0
   12.9620   -1.0170   22.2300 C   0  0  0  0  0  0  0  0  0  0  0  0
    5.6150    0.8140   20.2140 C   0  0  0  0  0  0  0  0  0  0  0  0
   13.3730   -0.1440   23.2050 C   0  0  0  0  0  0  0  0  0  0  0  0
    5.1270    1.0640   21.6180 C   0  0  0  0  0  0  0  0  0  0  0  0
   10.6740   -0.7820   22.8400 C   0  0  0  0  0  0  0  0  0  0  0  0
    4.9680    1.3870   19.1270 C   0  0  0  0  0  0  0  0  0  0  0  0
    8.6860   -0.1940   21.4560 C   0  0  0  0  0  0  0  0  0  0  0  0
    7.4690   -0.5500   21.0130 N   0  0  0  0  0  0  0  0  0  0  0  0
    9.3170    0.7690   21.0220 O   0  0  0  0  0  0  0  0  0  0  0  0
    6.7770    0.0690   19.9500 C   0  0  0  0  0  0  0  0  0  0  0  0
    9.2110   -1.0600   22.5840 C   0  0  0  0  0  0  0  0  0  0  0  0
    7.2300   -0.0400   18.6360 C   0  0  0  0  0  0  0  0  0  0  0  0
   12.4060    0.4010   24.0340 C   0  0  0  0  0  0  0  0  0  0  0  0
   11.6470   -1.3550   22.0280 C   0  0  0  0  0  0  0  0  0  0  0  0
    5.4910    1.2270   17.8580 C   0  0  0  0  0  0  0  0  0  0  0  0
  4  2  1  0
  6  4  1  0
  7  5  1  0
  8  1  2  0
  9  5  1  0
 11 10  1  0
 12 10  2  0
 13 11  1  0
 13  5  2  0
 14 10  1  0
 14  8  1  0
 15 13  1  0
 15  3  2  0
 16  6  2  0
 16  1  1  0
 17  8  1  0
 17  4  2  0
 18  9  2  0
 18  3  1  0
M  END
