
     RDKit          3D

 20 21  0  0  0  0  0  0  0  0999 V2000
    8.7910   -5.0930   25.1240 N   0  0  0  0  0  0  0  0  0  0  0  0
    9.7040   -5.4950   26.1930 C   0  0  0  0  0  0  0  0  0  0  0  0
    7.7230   -2.5810   20.9240 O   0  0  0  0  0  0  0  0  0  0  0  0
    8.8850   -3.6560   24.8700 C   0  0  0  0  0  0  0  0  0  0  0  0
    7.3670   -0.4230   21.4920 N   0  0  0  0  0  0  0  0  0  0  0  0
    8.5360   -3.3480   23.4270 C   0  0  0  0  0  0  0  0  0  0  0  0
    6.8450    0.2420   17.8620 N   0  0  0  0  0  0  0  0  0  0  0  0
    8.5030   -1.8500   23.0880 C   0  0  2  0  0  0  0  0  0  0  0  0
    7.8730   -1.6520   21.7090 C   0  0  1  0  0  0  0  0  0  0  0  0
    6.9720    0.1620   20.2660 C   0  0  2  0  0  0  0  0  0  0  0  0
    5.8910    1.0310   20.3510 C   0  0  0  0  0  0  0  0  0  0  0  0
    5.2870    1.4810   19.1940 C   0  0  0  0  0  0  0  0  0  0  0  0
    5.7960    1.0650   17.9790 C   0  0  0  0  0  0  0  0  0  0  0  0
    7.4090   -0.2030   18.9900 C   0  0  0  0  0  0  0  0  0  0  0  0
    9.8910   -1.2210   23.1300 C   0  0  2  0  0  0  0  0  0  0  0  0
   10.2010   -0.2640   24.0880 C   0  0  0  0  0  0  0  0  0  0  0  0
   11.4290    0.3820   24.0730 C   0  0  0  0  0  0  0  0  0  0  0  0
   12.3620    0.0790   23.0990 C   0  0  0  0  0  0  0  0  0  0  0  0
   12.0760   -0.8910   22.1580 C   0  0  0  0  0  0  0  0  0  0  0  0
   10.8490   -1.5390   22.1750 C   0  0  0  0  0  0  0  0  0  0  0  0
  2  1  1  0
  4  1  1  0
  6  4  1  0
  8  6  1  6
  9  5  1  0
  9  3  1  1
  9  8  1  0
 10  5  1  1
 11 10  1  0
 12 11  1  0
 13 12  1  0
 13  7  1  0
 14 10  1  0
 14  7  1  0
 15  8  1  0
 15 16  1  6
 17 16  1  0
 18 17  1  0
 19 18  1  0
 20 15  1  0
 20 19  1  0
M  END
$$$$
