
     RDKit          3D

 15 15  0  0  0  0  0  0  0  0999 V2000
    8.8080   -2.5060   21.3770 N   0  0  0  0  0  0  0  0  0  0  0  0
    8.5860   -2.6270   23.7990 C   0  0  0  0  0  0  0  0  0  0  0  0
    7.9790   -0.7580   20.2350 O   0  0  0  0  0  0  0  0  0  0  0  0
   13.9350   -1.8010   21.0030 Cl  0  0  0  0  0  0  0  0  0  0  0  0
    8.9830   -1.7480   22.6190 C   0  0  1  0  0  0  0  0  0  0  0  0
   10.4010   -1.2240   22.7680 C   0  0  0  0  0  0  0  0  0  0  0  0
   11.4270   -1.7450   21.9870 C   0  0  0  0  0  0  0  0  0  0  0  0
   12.6850   -1.1810   22.0430 C   0  0  0  0  0  0  0  0  0  0  0  0
   12.9720   -0.1280   22.8850 C   0  0  0  0  0  0  0  0  0  0  0  0
   11.9520    0.3330   23.6780 C   0  0  0  0  0  0  0  0  0  0  0  0
   10.6790   -0.1730   23.6380 C   0  0  0  0  0  0  0  0  0  0  0  0
    8.2790   -1.9450   20.2780 C   0  0  0  0  0  0  0  0  0  0  0  0
    8.0820   -2.8590   19.0950 C   0  0  0  0  0  0  0  0  0  0  0  0
   12.2310    1.3020   24.5880 F   0  0  0  0  0  0  0  0  0  0  0  0
    7.2360   -4.3480   19.5510 S   0  0  0  0  0  0  0  0  0  0  0  0
  5  1  1  0
  5  2  1  1
  6  5  1  0
  7  6  2  0
  8  4  1  0
  8  7  1  0
  9  8  2  0
 10  9  1  0
 11  6  1  0
 11 10  2  0
 12  3  2  0
 12  1  1  0
 13 12  1  0
 14 10  1  0
 13 15  1  0
M  END
