
     RDKit          3D

 17 18  0  0  0  0  0  0  0  0999 V2000
    6.8760   -2.6030   20.9910 N   0  0  0  0  0  0  0  0  0  0  0  0
    7.2900   -2.4690   18.5510 C   0  0  0  0  0  0  0  0  0  0  0  0
    5.7700   -3.9680   19.5960 O   0  0  0  0  0  0  0  0  0  0  0  0
    6.5770   -3.0600   19.7550 C   0  0  0  0  0  0  0  0  0  0  0  0
    8.4880   -2.6430   23.3620 N   0  0  0  0  0  0  0  0  0  0  0  0
    7.7470   -1.4770   21.3220 C   0  0  0  0  0  0  0  0  0  0  0  0
    8.9250   -1.9640   22.1370 C   0  0  0  0  0  0  0  0  0  0  0  0
    9.6520   -3.1090   24.1460 C   0  0  0  0  0  0  0  0  0  0  0  0
    9.3250   -4.1910   25.1320 C   0  0  0  0  0  0  0  0  0  0  0  0
    9.6370   -5.5460   25.0250 C   0  0  0  0  0  0  0  0  0  0  0  0
    9.3160   -6.2830   26.1880 C   0  0  0  0  0  0  0  0  0  0  0  0
    8.5280   -5.5150   27.0650 C   0  0  0  0  0  0  0  0  0  0  0  0
    7.5960   -3.7530   23.0030 C   0  0  0  0  0  0  0  0  0  0  0  0
    6.4080   -3.2670   22.2060 C   0  0  0  0  0  0  0  0  0  0  0  0
    7.6070   -6.1020   28.5860 Br  0  0  0  0  0  0  0  0  0  0  0  0
    8.4560   -3.8690   26.5980 S   0  0  0  0  0  0  0  0  0  0  0  0
    8.8760   -3.3080   18.2720 S   0  0  0  0  0  0  0  0  0  0  0  0
  4  3  2  0
  4  2  1  0
  4  1  1  0
  6  1  1  0
  7  6  1  0
  7  5  1  0
  8  5  1  0
  9  8  1  0
 10  9  2  0
 11 10  1  0
 12 11  2  0
 13  5  1  0
 14  1  1  0
 14 13  1  0
 15 12  1  0
 16 12  1  0
 16  9  1  0
  2 17  1  0
M  END
