
     RDKit          3D

 15 15  0  0  0  0  0  0  0  0999 V2000
   14.0310   -1.7620   21.3590 Cl  0  0  0  0  0  0  0  0  0  0  0  0
   12.7060   -1.0860   22.2660 C   0  0  0  0  0  0  0  0  0  0  0  0
   12.9190    0.0350   23.0380 C   0  0  0  0  0  0  0  0  0  0  0  0
   11.8800    0.5050   23.8280 C   0  0  0  0  0  0  0  0  0  0  0  0
   10.6470   -0.1290   23.8120 C   0  0  0  0  0  0  0  0  0  0  0  0
   11.4800   -1.7190   22.2260 C   0  0  0  0  0  0  0  0  0  0  0  0
   10.4270   -1.2300   22.9930 C   0  0  0  0  0  0  0  0  0  0  0  0
    9.0530   -1.8650   22.8940 C   0  0  2  0  0  0  0  0  0  0  0  0
    8.8630   -2.8890   24.0070 C   0  0  0  0  0  0  0  0  0  0  0  0
    7.5940   -3.5270   23.9220 O   0  0  0  0  0  0  0  0  0  0  0  0
    8.8280   -2.5240   21.6100 N   0  0  0  0  0  0  0  0  0  0  0  0
    8.3240   -1.8930   20.5440 C   0  0  0  0  0  0  0  0  0  0  0  0
    8.0920   -0.6870   20.5370 O   0  0  0  0  0  0  0  0  0  0  0  0
    8.0880   -2.7150   19.2890 C   0  0  0  0  0  0  0  0  0  0  0  0
    7.3560   -4.3490   19.5800 S   0  0  0  0  0  0  0  0  0  0  0  0
  2  1  1  0
  3  2  1  0
  4  3  1  0
  5  4  1  0
  6  2  1  0
  7  5  1  0
  7  6  1  0
  8  7  1  0
  8  9  1  1
 10  9  1  0
 11  8  1  0
 12 11  1  0
 13 12  1  0
 14 12  1  0
 14 15  1  0
M  END
$$$$
