
     RDKit          3D

 17 18  0  0  0  0  0  0  0  0999 V2000
    6.8790    0.3610   17.9610 N   0  0  0  0  0  0  0  0  0  0  0  0
    5.1370    0.9310   21.8700 C   0  0  0  0  0  0  0  0  0  0  0  0
    9.9500    0.9500   20.9940 O   0  0  0  0  0  0  0  0  0  0  0  0
    5.7510    0.6920   20.5140 C   0  0  0  0  0  0  0  0  0  0  0  0
    7.8970    0.2220   21.5280 N   0  0  0  0  0  0  0  0  0  0  0  0
   10.4350   -2.7630   23.4800 O   0  0  0  0  0  0  0  0  0  0  0  0
    5.0050    0.8870   19.3550 C   0  0  0  0  0  0  0  0  0  0  0  0
   11.7270    0.9270   23.7350 N   0  0  0  0  0  0  0  0  0  0  0  0
    5.6030    0.7260   18.1200 C   0  0  0  0  0  0  0  0  0  0  0  0
    7.6060    0.1900   19.0700 C   0  0  0  0  0  0  0  0  0  0  0  0
    7.1070    0.3790   20.3640 C   0  0  0  0  0  0  0  0  0  0  0  0
    9.2300    0.2100   21.6390 C   0  0  0  0  0  0  0  0  0  0  0  0
    9.8420   -0.6090   22.7930 C   0  0  1  0  0  0  0  0  0  0  0  0
    8.8870   -1.0350   23.9390 C   0  0  0  0  0  0  0  0  0  0  0  0
    9.1730   -2.5170   24.1020 C   0  0  0  0  0  0  0  0  0  0  0  0
   10.4650   -1.9300   22.3260 C   0  0  0  0  0  0  0  0  0  0  0  0
   10.9150    0.2290   23.3550 C   0  0  0  0  0  0  0  0  0  0  0  0
  4  2  1  0
  7  4  2  0
  9  7  1  0
  9  1  2  0
 10  1  1  0
 11 10  2  0
 11  5  1  0
 11  4  1  0
 12  5  1  0
 12  3  2  0
 13 12  1  0
 14 13  1  0
 15 14  1  0
 15  6  1  0
 16 13  1  0
 16  6  1  0
 13 17  1  1
 17  8  3  0
M  END
