
     RDKit          3D

 26 29  0  0  0  0  0  0  0  0999 V2000
    6.3940   -2.5710   20.9140 O   0  0  0  0  0  0  0  0  0  0  0  0
    7.2230   -1.8270   21.4140 C   0  0  0  0  0  0  0  0  0  0  0  0
    8.1010   -2.2930   22.5850 C   0  0  2  0  0  0  0  0  0  0  0  0
    8.0710   -1.2550   23.6990 C   0  0  0  0  0  0  0  0  0  0  0  0
    6.8510   -0.7430   24.1250 C   0  0  0  0  0  0  0  0  0  0  0  0
    6.8260    0.2110   25.1210 C   0  0  0  0  0  0  0  0  0  0  0  0
    5.2870    0.8170   25.6570 Cl  0  0  0  0  0  0  0  0  0  0  0  0
    7.9780    0.6760   25.7180 C   0  0  0  0  0  0  0  0  0  0  0  0
    9.2000    0.1730   25.3120 C   0  0  0  0  0  0  0  0  0  0  0  0
    9.2420   -0.7860   24.3130 C   0  0  0  0  0  0  0  0  0  0  0  0
   10.4980   -1.2480   23.9930 O   0  0  0  0  0  0  0  0  0  0  0  0
   10.5360   -2.4710   23.2280 C   0  0  0  0  0  0  0  0  0  0  0  0
    9.5540   -2.4190   22.0770 C   0  0  0  0  0  0  0  0  0  0  0  0
    7.6830   -3.6760   23.1110 C   0  0  0  0  0  0  0  0  0  0  0  0
    6.2530   -3.8340   23.3710 N   0  0  0  0  0  0  0  0  0  0  0  0
    7.4180   -0.5750   20.9670 N   0  0  0  0  0  0  0  0  0  0  0  0
    6.7230    0.0360   19.9050 C   0  0  0  0  0  0  0  0  0  0  0  0
    5.5410    0.7740   20.2060 C   0  0  0  0  0  0  0  0  0  0  0  0
    5.0000    0.9000   21.5110 C   0  0  0  0  0  0  0  0  0  0  0  0
    3.8500    1.6030   21.7280 C   0  0  0  0  0  0  0  0  0  0  0  0
    3.1880    2.2180   20.6770 C   0  0  0  0  0  0  0  0  0  0  0  0
    3.6720    2.1330   19.4030 C   0  0  0  0  0  0  0  0  0  0  0  0
    4.8580    1.4080   19.1320 C   0  0  0  0  0  0  0  0  0  0  0  0
    5.4040    1.2680   17.8330 C   0  0  0  0  0  0  0  0  0  0  0  0
    6.4990    0.5740   17.5540 N   0  0  0  0  0  0  0  0  0  0  0  0
    7.1260   -0.0290   18.5700 C   0  0  0  0  0  0  0  0  0  0  0  0
  2  1  1  0
  3  2  1  0
  4  3  1  0
  5  4  1  0
  6  5  1  0
  7  6  1  0
  8  6  1  0
  9  8  1  0
 10  9  1  0
 10  4  1  0
 11 10  1  0
 12 11  1  0
 13 12  1  0
 13  3  1  0
  3 14  1  1
 15 14  1  0
 16  2  1  0
 17 16  1  0
 18 17  1  0
 19 18  1  0
 20 19  1  0
 21 20  1  0
 22 21  1  0
 23 22  1  0
 23 18  1  0
 24 23  1  0
 25 24  1  0
 26 25  1  0
 26 17  1  0
M  END
