
     RDKit          3D

 27 28  0  0  0  0  0  0  0  0999 V2000
    7.4350   -1.3430   21.7660 N   0  0  0  0  0  0  0  0  0  0  0  0
    7.0900   -4.4470   20.1350 C   0  0  0  0  0  0  0  0  0  0  0  0
    5.4620   -2.2490   21.1500 O   0  0  0  0  0  0  0  0  0  0  0  0
    7.2240   -3.7840   21.4850 C   0  0  0  0  0  0  0  0  0  0  0  0
    7.7680    1.7470   22.9280 N   0  0  0  0  0  0  0  0  0  0  0  0
    8.9600    1.3190   21.0610 O   0  0  0  0  0  0  0  0  0  0  0  0
    6.6280   -2.4030   21.4640 C   0  0  0  0  0  0  0  0  0  0  0  0
    6.5420    0.3460   17.6960 N   0  0  0  0  0  0  0  0  0  0  0  0
    6.9520    0.0260   21.4470 C   0  0  1  0  0  0  0  0  0  0  0  0
    8.0020    1.0930   21.7970 C   0  0  0  0  0  0  0  0  0  0  0  0
    8.7000    2.7250   23.4560 C   0  0  0  0  0  0  0  0  0  0  0  0
    6.3080    0.2850   20.0950 C   0  0  0  0  0  0  0  0  0  0  0  0
    6.9280   -0.0750   18.9050 C   0  0  0  0  0  0  0  0  0  0  0  0
    5.4660    1.1370   17.6400 C   0  0  0  0  0  0  0  0  0  0  0  0
    4.7440    1.5180   18.7580 C   0  0  0  0  0  0  0  0  0  0  0  0
    5.1760    1.0810   19.9940 C   0  0  0  0  0  0  0  0  0  0  0  0
    8.6920   -1.5180   22.4310 C   0  0  0  0  0  0  0  0  0  0  0  0
    9.8720   -1.6120   21.6990 C   0  0  0  0  0  0  0  0  0  0  0  0
   11.0860   -1.7340   22.3500 C   0  0  0  0  0  0  0  0  0  0  0  0
   11.1590   -1.7670   23.7420 C   0  0  0  0  0  0  0  0  0  0  0  0
    9.9710   -1.6900   24.4640 C   0  0  0  0  0  0  0  0  0  0  0  0
    8.7500   -1.5650   23.8230 C   0  0  0  0  0  0  0  0  0  0  0  0
   12.5060   -1.8230   24.4760 C   0  0  0  0  0  0  0  0  0  0  0  0
   12.7120   -0.5150   25.2350 C   0  0  0  0  0  0  0  0  0  0  0  0
   13.6860   -1.9860   23.5150 C   0  0  0  0  0  0  0  0  0  0  0  0
   12.5480   -2.9960   25.4740 C   0  0  0  0  0  0  0  0  0  0  0  0
    8.2370   -3.7450   18.9150 S   0  0  0  0  0  0  0  0  0  0  0  0
  4  2  1  0
  7  4  1  0
  7  3  2  0
  7  1  1  0
  9  1  1  0
  9 10  1  6
 10  6  2  0
 10  5  1  0
 11  5  1  0
 12  9  1  0
 13 12  1  0
 13  8  2  0
 14  8  1  0
 15 14  2  0
 16 15  1  0
 16 12  2  0
 17  1  1  0
 18 17  2  0
 19 18  1  0
 20 19  2  0
 21 20  1  0
 22 21  2  0
 22 17  1  0
 23 20  1  0
 23 24  1  0
 25 23  1  0
 26 23  1  0
  2 27  1  0
M  END
