
     RDKit          3D

 12 12  0  0  0  0  0  0  0  0999 V2000
   20.9550   48.0520   12.7810 Cl  0  0  0  0  0  0  0  0  0  0  0  0
   22.1450   46.1050    8.1340 Cl  0  0  0  0  0  0  0  0  0  0  0  0
   23.8230   45.4790   10.6090 O   0  0  0  0  0  0  0  0  0  0  0  0
   22.6870   44.9920   10.9330 C   0  0  0  0  0  0  0  0  0  0  0  0
   22.5360   43.7440   11.1990 O   0  0  0  0  0  0  0  0  0  0  0  0
   21.4710   45.9300   11.0470 C   0  0  0  0  0  0  0  0  0  0  0  0
   21.5180   47.3080   10.3670 C   0  0  0  0  0  0  0  0  0  0  0  0
   21.2710   48.4060   11.1050 C   0  0  0  0  0  0  0  0  0  0  0  0
   21.2760   49.6730   10.6040 C   0  0  0  0  0  0  0  0  0  0  0  0
   21.5340   49.8610    9.2660 C   0  0  0  0  0  0  0  0  0  0  0  0
   21.8250   48.7670    8.4910 C   0  0  0  0  0  0  0  0  0  0  0  0
   21.7900   47.5170    9.0680 C   0  0  0  0  0  0  0  0  0  0  0  0
  4  3  1  0
  5  4  2  0
  6  4  1  0
  7  6  1  0
  8  7  2  0
  8  1  1  0
  9  8  1  0
 10  9  2  0
 11 10  1  0
 12  7  1  0
 12 11  2  0
 12  2  1  0
M  END
