
     RDKit          3D

 12 13  0  0  0  0  0  0  0  0999 V2000
   28.6690   56.5000   -9.6630 N   0  0  0  0  0  0  0  0  0  0  0  0
   27.8540   56.2090   -8.4850 C   0  0  0  0  0  0  0  0  0  0  0  0
   28.3950   54.9930   -7.7710 C   0  0  0  0  0  0  0  0  0  0  0  0
   28.9480   55.0820   -6.4990 C   0  0  0  0  0  0  0  0  0  0  0  0
   29.3000   54.0550   -5.7530 N   0  0  0  0  0  0  0  0  0  0  0  0
   29.1070   52.7980   -6.2730 C   0  0  0  0  0  0  0  0  0  0  0  0
   28.5920   52.6020   -7.5660 C   0  0  0  0  0  0  0  0  0  0  0  0
   28.2480   53.7430   -8.3070 C   0  0  0  0  0  0  0  0  0  0  0  0
   29.3890   51.6720   -5.4690 C   0  0  0  0  0  0  0  0  0  0  0  0
   29.1770   50.4130   -5.9520 C   0  0  0  0  0  0  0  0  0  0  0  0
   28.6800   50.2200   -7.2270 C   0  0  0  0  0  0  0  0  0  0  0  0
   28.3880   51.2840   -8.0270 C   0  0  0  0  0  0  0  0  0  0  0  0
  2  1  1  0
  3  2  1  0
  4  3  2  0
  5  4  1  0
  6  5  2  0
  7  6  1  0
  8  7  2  0
  8  3  1  0
  9  6  1  0
 10  9  2  0
 11 10  1  0
 12 11  2  0
 12  7  1  0
M  END
