
     RDKit          3D

 12 12  0  0  0  0  0  0  0  0999 V2000
   33.2090   46.1480   -8.0470 O   0  0  0  0  0  0  0  0  0  0  0  0
   32.2030   45.5370   -7.7390 C   0  0  0  0  0  0  0  0  0  0  0  0
   31.0670   45.7130   -8.3310 O   0  0  0  0  0  0  0  0  0  0  0  0
   32.1250   44.5370   -6.6220 C   0  0  0  0  0  0  0  0  0  0  0  0
   32.1970   45.1990   -5.2570 C   0  0  0  0  0  0  0  0  0  0  0  0
   33.4170   45.9920   -5.1060 N   0  0  0  0  0  0  0  0  0  0  0  0
   33.6390   47.2980   -5.3060 C   0  0  0  0  0  0  0  0  0  0  0  0
   32.5660   48.2820   -5.6020 C   0  0  0  0  0  0  0  0  0  0  0  0
   34.9140   47.5820   -5.1770 N   0  0  0  0  0  0  0  0  0  0  0  0
   34.5890   45.3560   -4.7990 N   0  0  0  0  0  0  0  0  0  0  0  0
   35.4450   46.3560   -4.8510 C   0  0  0  0  0  0  0  0  0  0  0  0
   36.8870   46.1800   -4.5360 C   0  0  0  0  0  0  0  0  0  0  0  0
  2  1  2  0
  3  2  1  0
  4  2  1  0
  5  4  1  0
  6  5  1  0
  7  6  1  0
  8  7  1  0
  9  7  2  0
 10  6  1  0
 11 10  2  0
 11  9  1  0
 12 11  1  0
M  END
