
     RDKit          3D

 19 20  0  0  0  0  0  0  0  0999 V2000
    7.5020   -2.5100   18.3050 C   0  0  0  0  0  0  0  0  0  0  0  0
    7.9100   -1.1150   18.7560 C   0  0  0  0  0  0  0  0  0  0  0  0
    6.7960   -0.1030   18.4880 C   0  0  0  0  0  0  0  0  0  0  0  0
    5.7720    0.1540   19.4660 N   0  0  0  0  0  0  0  0  0  0  0  0
    5.7090   -0.4410   20.7650 C   0  0  0  0  0  0  0  0  0  0  0  0
    5.8360    0.6420   21.8490 C   0  0  0  0  0  0  0  0  0  0  0  0
    5.0480    1.7810   21.5820 N   0  0  0  0  0  0  0  0  0  0  0  0
    5.0380    2.6610   22.4860 C   0  0  0  0  0  0  0  0  0  0  0  0
    6.3300    3.4710   22.7020 C   0  0  0  0  0  0  0  0  0  0  0  0
    7.2900    3.0720   23.6310 C   0  0  0  0  0  0  0  0  0  0  0  0
    8.4240    3.8410   23.8540 C   0  0  0  0  0  0  0  0  0  0  0  0
    6.4840    4.6930   22.0660 C   0  0  0  0  0  0  0  0  0  0  0  0
    7.6150    5.4610   22.2970 C   0  0  0  0  0  0  0  0  0  0  0  0
    8.5580    5.0650   23.2210 C   0  0  0  0  0  0  0  0  0  0  0  0
    9.6510    5.8540   23.4230 F   0  0  0  0  0  0  0  0  0  0  0  0
    4.8670    2.2610   20.2660 C   0  0  0  0  0  0  0  0  0  0  0  0
    4.7470    1.1250   19.2440 C   0  0  0  0  0  0  0  0  0  0  0  0
    6.7480    0.4880   17.4710 O   0  0  0  0  0  0  0  0  0  0  0  0
    8.8550   -3.5340   18.6290 S   0  0  0  0  0  0  0  0  0  0  0  0
  2  1  1  0
  3  2  1  0
  4  3  1  0
  5  4  1  0
  6  5  1  0
  7  6  1  0
  8  7  1  0
  9  8  1  0
 10  9  2  0
 11 10  1  0
 12  9  1  0
 13 12  2  0
 14 11  2  0
 14 13  1  0
 15 14  1  0
 16  7  1  0
 17 16  1  0
 17  4  1  0
 18  3  2  0
  1 19  1  0
M  END
