
     RDKit          3D

 21 22  0  0  0  0  0  0  0  0999 V2000
    6.0480   -4.6560   20.0320 O   0  0  0  0  0  0  0  0  0  0  0  0
    6.7310   -3.6650   20.2490 C   0  0  0  0  0  0  0  0  0  0  0  0
    7.1200   -2.7280   19.1220 C   0  0  0  0  0  0  0  0  0  0  0  0
    7.1500   -3.3360   21.4890 N   0  0  0  0  0  0  0  0  0  0  0  0
    6.8980   -4.2190   22.6350 C   0  0  0  0  0  0  0  0  0  0  0  0
    6.0860   -3.4990   23.7080 C   0  0  0  0  0  0  0  0  0  0  0  0
    7.8700   -2.1110   21.8650 C   0  0  0  0  0  0  0  0  0  0  0  0
    7.1050   -1.3300   22.9400 C   0  0  0  0  0  0  0  0  0  0  0  0
    6.8250   -2.2290   24.1530 C   0  0  1  0  0  0  0  0  0  0  0  0
    6.0460   -1.4890   25.2040 C   0  0  0  0  0  0  0  0  0  0  0  0
    4.8220   -1.4070   25.1680 O   0  0  0  0  0  0  0  0  0  0  0  0
    6.8070   -0.9300   26.1640 N   0  0  0  0  0  0  0  0  0  0  0  0
    6.3720   -0.1320   27.2450 C   0  0  0  0  0  0  0  0  0  0  0  0
    6.8380    1.1730   27.3810 C   0  0  0  0  0  0  0  0  0  0  0  0
    6.6020    1.9470   28.4480 N   0  0  0  0  0  0  0  0  0  0  0  0
    5.8720    1.4160   29.4230 C   0  0  0  0  0  0  0  0  0  0  0  0
    5.6570    2.0940   30.5710 O   0  0  0  0  0  0  0  0  0  0  0  0
    6.2010    3.4120   30.6910 C   0  0  0  0  0  0  0  0  0  0  0  0
    5.3130    0.1310   29.3810 C   0  0  0  0  0  0  0  0  0  0  0  0
    5.5740   -0.6380   28.2620 C   0  0  0  0  0  0  0  0  0  0  0  0
    8.5590   -3.5650   18.6990 S   0  0  0  0  0  0  0  0  0  0  0  0
  2  1  2  0
  3  2  1  0
  4  2  1  0
  5  4  1  0
  6  5  1  0
  7  4  1  0
  8  7  1  0
  9  8  1  0
  9  6  1  0
  9 10  1  1
 11 10  2  0
 12 10  1  0
 13 12  1  0
 14 13  2  0
 15 14  1  0
 16 15  2  0
 17 16  1  0
 18 17  1  0
 19 16  1  0
 20 19  2  0
 20 13  1  0
  3 21  1  0
M  END
