
     RDKit          3D

 23 25  0  0  0  0  0  0  0  0999 V2000
    6.4400    0.1070   21.0310 N   0  0  0  0  0  0  0  0  0  0  0  0
    7.7390   -0.0120   21.4430 C   0  0  1  0  0  0  0  0  0  0  0  0
    8.6870    0.5440   20.8780 O   0  0  0  0  0  0  0  0  0  0  0  0
    5.9730    0.3710   19.7310 C   0  0  1  0  0  0  0  0  0  0  0  0
    6.4730    0.7310   17.4090 N   0  0  0  0  0  0  0  0  0  0  0  0
    7.9930    0.5910   25.7940 O   0  0  0  0  0  0  0  0  0  0  0  0
    4.8090    1.1150   19.6000 C   0  0  0  0  0  0  0  0  0  0  0  0
    7.8610   -0.7360   22.5740 N   0  0  0  0  0  0  0  0  0  0  0  0
    4.5090    1.6930   18.3820 C   0  0  0  0  0  0  0  0  0  0  0  0
    5.3670    1.4800   17.3250 C   0  0  0  0  0  0  0  0  0  0  0  0
    6.7610    0.1940   18.5960 C   0  0  0  0  0  0  0  0  0  0  0  0
    9.0130   -0.8490   23.4790 C   0  0  2  0  0  0  0  0  0  0  0  0
   10.1350   -1.6570   22.7910 C   0  0  0  0  0  0  0  0  0  0  0  0
   11.4410   -1.7610   23.5420 C   0  0  1  0  0  0  0  0  0  0  0  0
   11.6540   -2.7780   24.4660 C   0  0  0  0  0  0  0  0  0  0  0  0
   12.8700   -2.8990   25.1230 C   0  0  0  0  0  0  0  0  0  0  0  0
   13.8850   -2.0030   24.8690 C   0  0  0  0  0  0  0  0  0  0  0  0
   13.6900   -0.9910   23.9500 C   0  0  0  0  0  0  0  0  0  0  0  0
   12.4800   -0.8750   23.2850 C   0  0  0  0  0  0  0  0  0  0  0  0
    8.5240   -1.5610   24.7510 C   0  0  0  0  0  0  0  0  0  0  0  0
    7.4840   -0.7150   25.4610 C   0  0  0  0  0  0  0  0  0  0  0  0
    8.4200    1.3110   24.6260 C   0  0  0  0  0  0  0  0  0  0  0  0
    9.4960    0.5620   23.8570 C   0  0  0  0  0  0  0  0  0  0  0  0
  2  1  1  0
  2  3  1  1
  4  1  1  1
  7  4  1  0
  8  2  1  0
  9  7  1  0
 10  9  1  0
 10  5  1  0
 11  5  1  0
 11  4  1  0
 12  8  1  0
 12 13  1  6
 14 13  1  6
 15 14  1  0
 16 15  1  0
 17 16  1  0
 18 17  1  0
 19 18  1  0
 19 14  1  0
 20 12  1  0
 21 20  1  0
 21  6  1  0
 22  6  1  0
 23 22  1  0
 23 12  1  0
M  END
$$$$
