
     RDKit          3D

 16 17  0  0  0  0  0  0  0  0999 V2000
   26.7210   57.2990   -7.8590 O   0  0  0  0  0  0  0  0  0  0  0  0
   27.3660   56.5250   -8.5600 C   0  0  0  0  0  0  0  0  0  0  0  0
   27.4180   56.6390   -9.8850 N   0  0  0  0  0  0  0  0  0  0  0  0
   26.7280   57.7010  -10.5960 C   0  0  0  0  0  0  0  0  0  0  0  0
   28.1150   55.3700   -7.9630 C   0  0  0  0  0  0  0  0  0  0  0  0
   28.8030   55.4660   -6.7160 C   0  0  0  0  0  0  0  0  0  0  0  0
   29.0410   56.7670   -6.0090 C   0  0  0  0  0  0  0  0  0  0  0  0
   27.8800   54.1320   -8.4980 C   0  0  0  0  0  0  0  0  0  0  0  0
   28.3760   52.9880   -7.8610 C   0  0  0  0  0  0  0  0  0  0  0  0
   29.1200   53.1650   -6.6860 C   0  0  0  0  0  0  0  0  0  0  0  0
   29.3280   54.4040   -6.1290 N   0  0  0  0  0  0  0  0  0  0  0  0
   28.0860   51.6770   -8.2890 C   0  0  0  0  0  0  0  0  0  0  0  0
   28.4850   50.6030   -7.5620 C   0  0  0  0  0  0  0  0  0  0  0  0
   29.1910   50.8060   -6.4120 C   0  0  0  0  0  0  0  0  0  0  0  0
   29.3960   49.7450   -5.5900 F   0  0  0  0  0  0  0  0  0  0  0  0
   29.5690   52.0270   -5.9800 C   0  0  0  0  0  0  0  0  0  0  0  0
  2  1  2  0
  3  2  1  0
  4  3  1  0
  5  2  1  0
  6  5  2  0
  7  6  1  0
  8  5  1  0
  9  8  2  0
 10  9  1  0
 11 10  2  0
 11  6  1  0
 12  9  1  0
 13 12  2  0
 14 13  1  0
 15 14  1  0
 16 14  2  0
 16 10  1  0
M  END
