
     RDKit          3D

 28 31  0  0  0  0  0  0  0  0999 V2000
    9.0040    1.5180   21.1450 O   0  0  0  0  0  0  0  0  0  0  0  0
    8.9020    0.4420   21.7110 C   0  0  0  0  0  0  0  0  0  0  0  0
    8.2380   -0.7500   21.0200 C   0  0  0  0  0  0  0  0  0  0  0  0
    7.3130   -0.3270   19.9890 N   0  0  0  0  0  0  0  0  0  0  0  0
    6.1860    0.4300   20.0840 C   0  0  0  0  0  0  0  0  0  0  0  0
    5.3670    0.8040   21.1400 C   0  0  0  0  0  0  0  0  0  0  0  0
    4.2440    1.5680   20.8470 C   0  0  0  0  0  0  0  0  0  0  0  0
    3.9600    1.9500   19.5330 C   0  0  0  0  0  0  0  0  0  0  0  0
    4.7980    1.5840   18.4860 C   0  0  0  0  0  0  0  0  0  0  0  0
    5.9200    0.8110   18.7710 C   0  0  0  0  0  0  0  0  0  0  0  0
    6.8950    0.2820   17.9540 N   0  0  0  0  0  0  0  0  0  0  0  0
    7.7260   -0.3920   18.6960 N   0  0  0  0  0  0  0  0  0  0  0  0
    9.3740    0.2330   22.9740 N   0  0  0  0  0  0  0  0  0  0  0  0
    9.9380    1.3670   23.7020 C   0  0  0  0  0  0  0  0  0  0  0  0
   11.3730    1.5840   23.3750 C   0  0  0  0  0  0  0  0  0  0  0  0
   11.8430    2.7840   22.9880 N   0  0  0  0  0  0  0  0  0  0  0  0
   13.1890    2.7360   22.7580 N   0  0  0  0  0  0  0  0  0  0  0  0
   13.5360    1.4790   22.9950 C   0  0  0  0  0  0  0  0  0  0  0  0
   12.4370    0.7190   23.3890 C   0  0  0  0  0  0  0  0  0  0  0  0
    9.3010   -1.0250   23.6390 C   0  0  0  0  0  0  0  0  0  0  0  0
   10.1630   -2.0620   23.2980 C   0  0  0  0  0  0  0  0  0  0  0  0
   10.0740   -3.2820   23.9440 C   0  0  0  0  0  0  0  0  0  0  0  0
    8.3500   -1.2260   24.6300 C   0  0  0  0  0  0  0  0  0  0  0  0
    8.2740   -2.4360   25.2930 C   0  0  0  0  0  0  0  0  0  0  0  0
    9.1380   -3.4870   24.9720 C   0  0  0  0  0  0  0  0  0  0  0  0
    9.0910   -4.6810   25.6620 N   0  0  0  0  0  0  0  0  0  0  0  0
    7.9890   -4.9960   26.5620 C   0  0  0  0  0  0  0  0  0  0  0  0
    9.9880   -5.7730   25.3340 C   0  0  0  0  0  0  0  0  0  0  0  0
  2  1  1  0
  3  2  1  0
  4  3  1  0
  5  4  1  0
  6  5  1  0
  7  6  1  0
  8  7  1  0
  9  8  1  0
 10  9  1  0
 10  5  1  0
 11 10  1  0
 12 11  1  0
 12  4  1  0
 13  2  1  0
 14 13  1  0
 15 14  1  0
 16 15  1  0
 17 16  1  0
 18 17  1  0
 19 18  1  0
 19 15  1  0
 20 13  1  0
 21 20  1  0
 22 21  1  0
 23 20  1  0
 24 23  1  0
 25 24  1  0
 25 22  1  0
 26 25  1  0
 27 26  1  0
 28 26  1  0
M  END
$$$$
