
     RDKit          3D

  5  5  0  0  0  0  0  0  0  0999 V2000
    7.3330  -22.4470   29.5200 N   0  0  0  0  0  0  0  0  0  0  0  0
    6.5320  -21.5490   28.9150 C   0  0  0  0  0  0  0  0  0  0  0  0
    6.9840  -20.3100   29.2030 N   0  0  0  0  0  0  0  0  0  0  0  0
    8.0660  -20.4250   29.9950 C   0  0  0  0  0  0  0  0  0  0  0  0
    8.2900  -21.7760   30.1950 C   0  0  0  0  0  0  0  0  0  0  0  0
  2  1  2  0
  3  2  1  0
  4  3  1  0
  5  1  1  0
  5  4  2  0
M  CHG  1   1   1
M  END
$$$$
