
     RDKit          3D

 18 19  0  0  0  0  0  0  0  0999 V2000
    6.2770    0.5860   17.3790 N   0  0  0  0  0  0  0  0  0  0  0  0
    4.5210    1.3410   21.2360 C   0  0  0  0  0  0  0  0  0  0  0  0
    8.2970    1.2080   20.9270 O   0  0  0  0  0  0  0  0  0  0  0  0
   13.8770   -2.0370   22.5550 Cl  0  0  0  0  0  0  0  0  0  0  0  0
    5.1310    1.0340   19.8920 C   0  0  0  0  0  0  0  0  0  0  0  0
    8.9990   -0.7810   21.7740 N   0  0  0  0  0  0  0  0  0  0  0  0
    4.6850    1.7120   18.7630 C   0  0  0  0  0  0  0  0  0  0  0  0
    5.2890    1.4710   17.5450 C   0  0  0  0  0  0  0  0  0  0  0  0
    6.6870   -0.0780   18.4640 C   0  0  0  0  0  0  0  0  0  0  0  0
    6.1720    0.1050   19.7350 C   0  0  0  0  0  0  0  0  0  0  0  0
    6.7540   -0.6310   20.9200 C   0  0  0  0  0  0  0  0  0  0  0  0
    8.0910    0.0270   21.1960 C   0  0  0  0  0  0  0  0  0  0  0  0
   10.2580   -0.4190   22.2950 C   0  0  0  0  0  0  0  0  0  0  0  0
   10.4360    0.8020   22.9370 C   0  0  0  0  0  0  0  0  0  0  0  0
   11.7020    1.1880   23.3480 C   0  0  0  0  0  0  0  0  0  0  0  0
   12.7870    0.3500   23.1520 C   0  0  0  0  0  0  0  0  0  0  0  0
   12.5780   -0.8840   22.5720 C   0  0  2  0  0  0  0  0  0  0  0  0
   11.3360   -1.2770   22.1200 C   0  0  0  0  0  0  0  0  0  0  0  0
  5  2  1  0
  7  5  1  0
  8  7  1  0
  8  1  1  0
  9  1  1  0
 10  5  1  0
 10  9  1  0
 11 10  1  0
 12 11  1  0
 12  6  1  0
 12  3  1  0
 13  6  1  0
 14 13  1  0
 15 14  1  0
 16 15  1  0
 17 16  1  0
 17  4  1  1
 18 13  1  0
 18 17  1  0
M  END
$$$$
