
     RDKit          3D

 18 19  0  0  0  0  0  0  0  0999 V2000
    7.1400   -2.4960   18.5550 C   0  0  0  0  0  0  0  0  0  0  0  0
    6.5890   -3.2670   19.7410 C   0  0  1  0  0  0  0  0  0  0  0  0
    5.8260   -4.2050   19.5680 O   0  0  0  0  0  0  0  0  0  0  0  0
    7.0790   -2.9610   20.9590 N   0  0  0  0  0  0  0  0  0  0  0  0
    7.1200   -4.0170   21.9850 C   0  0  0  0  0  0  0  0  0  0  0  0
    6.9270   -3.4420   23.3840 C   0  0  0  0  0  0  0  0  0  0  0  0
    7.8180   -1.7180   21.2450 C   0  0  0  0  0  0  0  0  0  0  0  0
    7.5800   -1.2560   22.6740 C   0  0  0  0  0  0  0  0  0  0  0  0
    7.8610   -2.3360   23.6300 N   0  0  0  0  0  0  0  0  0  0  0  0
    9.2690   -2.7750   23.5830 C   0  0  0  0  0  0  0  0  0  0  0  0
   10.2640   -1.6810   23.8930 C   0  0  0  0  0  0  0  0  0  0  0  0
   11.3810   -1.4840   23.0860 C   0  0  0  0  0  0  0  0  0  0  0  0
   12.2540   -0.4520   23.3730 C   0  0  2  0  0  0  0  0  0  0  0  0
   13.7370   -0.3210   22.4680 Cl  0  0  0  0  0  0  0  0  0  0  0  0
   12.0300    0.4240   24.4160 C   0  0  0  0  0  0  0  0  0  0  0  0
   10.0530   -0.8340   24.9750 C   0  0  0  0  0  0  0  0  0  0  0  0
   10.9200    0.2180   25.2210 C   0  0  0  0  0  0  0  0  0  0  0  0
   10.6570    1.0510   26.2660 O   0  0  0  0  0  0  0  0  0  0  0  0
  2  1  1  6
  3  2  1  0
  4  2  1  0
  5  4  1  0
  6  5  1  0
  7  4  1  0
  8  7  1  0
  9  8  1  0
  9  6  1  0
 10  9  1  0
 11 10  1  0
 12 11  1  0
 13 12  1  0
 13 14  1  1
 15 13  1  0
 16 11  1  0
 17 16  1  0
 17 15  1  0
 18 17  1  0
M  END
