
     RDKit          3D

 21 22  0  0  0  0  0  0  0  0999 V2000
    7.7770   -3.0880   23.4820 N   0  0  0  0  0  0  0  0  0  0  0  0
    6.6050    0.6600   17.4810 N   0  0  0  0  0  0  0  0  0  0  0  0
    5.4340    1.1880   17.8550 C   0  0  0  0  0  0  0  0  0  0  0  0
    9.2240   -0.4410   23.8230 C   0  0  0  0  0  0  0  0  0  0  0  0
    6.1670   -2.1840   21.5960 O   0  0  0  0  0  0  0  0  0  0  0  0
    7.3140   -1.7590   21.5120 C   0  0  0  0  0  0  0  0  0  0  0  0
   10.2340    0.3610   24.3460 C   0  0  0  0  0  0  0  0  0  0  0  0
    9.5010   -1.3990   22.8430 C   0  0  0  0  0  0  0  0  0  0  0  0
   10.8160   -1.5260   22.3920 C   0  0  0  0  0  0  0  0  0  0  0  0
   11.8130   -0.7480   22.9480 C   0  0  0  0  0  0  0  0  0  0  0  0
    5.7840    0.6710   20.1720 C   0  0  0  0  0  0  0  0  0  0  0  0
    7.3710    0.1210   18.4370 C   0  0  0  0  0  0  0  0  0  0  0  0
    7.0100    0.0730   19.7850 C   0  0  0  0  0  0  0  0  0  0  0  0
    4.9900    1.2110   19.1640 C   0  0  0  0  0  0  0  0  0  0  0  0
    5.4440    0.9420   21.6160 C   0  0  0  0  0  0  0  0  0  0  0  0
    7.5120    0.7530   25.0050 C   0  0  0  0  0  0  0  0  0  0  0  0
    7.7220   -0.8390   20.6090 N   0  0  0  0  0  0  0  0  0  0  0  0
    7.9120   -0.3620   24.2090 O   0  0  0  0  0  0  0  0  0  0  0  0
    8.4280   -2.3760   22.3730 C   0  0  1  0  0  0  0  0  0  0  0  0
   13.6300   -1.1080   22.4960 Br  0  0  0  0  0  0  0  0  0  0  0  0
   11.5370    0.2030   23.9060 C   0  0  0  0  0  0  0  0  0  0  0  0
  3  2  2  0
  6  5  2  0
  7  4  2  0
  8  4  1  0
  9  8  2  0
 10  9  1  0
 12  2  1  0
 13 12  2  0
 13 11  1  0
 14  3  1  0
 14 11  2  0
 15 11  1  0
 17 13  1  0
 17  6  1  0
 18 16  1  0
 18  4  1  0
 19  6  1  0
 19  8  1  0
 19  1  1  1
 20 10  1  0
 21  7  1  0
 21 10  2  0
M  END
