
     RDKit          3D

 16 17  0  0  0  0  0  0  0  0999 V2000
    7.8290   -6.1040   28.4330 Cl  0  0  0  0  0  0  0  0  0  0  0  0
    8.6520   -5.5240   27.0430 C   0  0  0  0  0  0  0  0  0  0  0  0
    9.5470   -6.2240   26.2440 C   0  0  0  0  0  0  0  0  0  0  0  0
    9.8650   -5.4940   25.0760 C   0  0  0  0  0  0  0  0  0  0  0  0
    8.3920   -3.9220   26.4850 S   0  0  0  0  0  0  0  0  0  0  0  0
    9.4110   -4.1800   25.1130 C   0  0  0  0  0  0  0  0  0  0  0  0
    9.7110   -3.0890   24.1300 C   0  0  0  0  0  0  0  0  0  0  0  0
    8.5470   -2.6790   23.3230 N   0  0  0  0  0  0  0  0  0  0  0  0
    7.7180   -3.8380   22.9780 C   0  0  0  0  0  0  0  0  0  0  0  0
    6.5090   -3.4160   22.1780 C   0  0  0  0  0  0  0  0  0  0  0  0
    8.9730   -2.0100   22.0890 C   0  0  0  0  0  0  0  0  0  0  0  0
    7.7910   -1.6050   21.2350 C   0  0  0  0  0  0  0  0  0  0  0  0
    6.9470   -2.7670   20.9460 N   0  0  0  0  0  0  0  0  0  0  0  0
    6.6130   -3.2330   19.7230 C   0  0  0  0  0  0  0  0  0  0  0  0
    5.8710   -4.2020   19.5850 O   0  0  0  0  0  0  0  0  0  0  0  0
    7.2180   -2.5700   18.4990 C   0  0  0  0  0  0  0  0  0  0  0  0
  2  1  1  0
  3  2  2  0
  4  3  1  0
  5  2  1  0
  6  4  2  0
  6  5  1  0
  7  6  1  0
  8  7  1  0
  9  8  1  0
 10  9  1  0
 11  8  1  0
 12 11  1  0
 13 12  1  0
 13 10  1  0
 14 13  1  0
 15 14  2  0
 16 14  1  0
M  END
