
     RDKit          3D

  8  8  0  0  0  0  0  0  0  0999 V2000
   -0.8450    5.5000  -17.6320 C   0  0  0  0  0  0  0  0  0  0  0  0
   -0.9530    4.2040  -18.1820 C   0  0  0  0  0  0  0  0  0  0  0  0
   -0.6160    3.6920  -19.5600 C   0  0  0  0  0  0  0  0  0  0  0  0
   -1.4650    3.3330  -17.3190 O   0  0  0  0  0  0  0  0  0  0  0  0
   -1.7040    4.0790  -16.1120 N   0  0  0  0  0  0  0  0  0  0  0  0
   -1.3540    5.3890  -16.3130 C   0  0  1  0  0  0  0  0  0  0  0  0
   -1.4480    6.3540  -15.1560 C   0  0  0  0  0  0  0  0  0  0  0  0
   -0.8450    7.4090  -15.1190 O   0  0  0  0  0  0  0  0  0  0  0  0
  2  1  1  0
  3  2  1  0
  4  2  1  0
  5  4  1  0
  6  5  1  0
  6  1  1  0
  6  7  1  1
  8  7  1  0
M  END
