
     RDKit          3D

 27 29  0  0  0  0  0  0  0  0999 V2000
   13.8650   -1.8610   21.9750 Cl  0  0  0  0  0  0  0  0  0  0  0  0
   12.4710   -0.9950   22.5310 C   0  0  0  0  0  0  0  0  0  0  0  0
   12.6070    0.0850   23.3870 C   0  0  1  0  0  0  0  0  0  0  0  0
   14.1590    0.7810   23.7030 Cl  0  0  0  0  0  0  0  0  0  0  0  0
   11.4840    0.6960   23.9100 C   0  0  0  0  0  0  0  0  0  0  0  0
   10.2300    0.2600   23.5360 C   0  0  0  0  0  0  0  0  0  0  0  0
   11.2110   -1.4190   22.1430 C   0  0  0  0  0  0  0  0  0  0  0  0
   10.0740   -0.7850   22.6370 C   0  0  0  0  0  0  0  0  0  0  0  0
    8.6870   -1.2180   22.2260 C   0  0  1  0  0  0  0  0  0  0  0  0
    7.9750   -1.0830   23.4570 O   0  0  0  0  0  0  0  0  0  0  0  0
    7.3890   -2.2920   23.9350 C   0  0  0  0  0  0  0  0  0  0  0  0
    6.7490   -1.9490   25.2480 C   0  0  0  0  0  0  0  0  0  0  0  0
    6.0730   -0.6970   25.1880 O   0  0  0  0  0  0  0  0  0  0  0  0
    5.3260   -0.4300   26.3720 C   0  0  0  0  0  0  0  0  0  0  0  0
    8.0570   -0.2040   21.2640 C   0  0  1  0  0  0  0  0  0  0  0  0
    8.2490    1.0020   21.4120 O   0  0  0  0  0  0  0  0  0  0  0  0
    7.4050   -0.7380   20.2120 N   0  0  0  0  0  0  0  0  0  0  0  0
    6.4320   -0.1910   19.3550 C   0  0  1  0  0  0  0  0  0  0  0  0
    5.4740    0.7760   19.8090 C   0  0  2  0  0  0  0  0  0  0  0  0
    5.0980    0.9450   21.1670 C   0  0  0  0  0  0  0  0  0  0  0  0
    4.0860    1.7930   21.5200 C   0  0  0  0  0  0  0  0  0  0  0  0
    3.3950    2.5090   20.5550 C   0  0  0  0  0  0  0  0  0  0  0  0
    3.7200    2.3870   19.2360 C   0  0  0  0  0  0  0  0  0  0  0  0
    4.7660    1.5230   18.8270 C   0  0  2  0  0  0  0  0  0  0  0  0
    5.0830    1.2920   17.4710 C   0  0  0  0  0  0  0  0  0  0  0  0
    5.9550    0.3930   17.0530 N   0  0  0  0  0  0  0  0  0  0  0  0
    6.5820   -0.3370   17.9810 C   0  0  0  0  0  0  0  0  0  0  0  0
  2  1  1  0
  3  2  1  0
  3  4  1  6
  5  3  1  0
  6  5  1  0
  7  2  1  0
  8  6  1  0
  8  7  1  0
  9  8  1  0
  9 10  1  1
 11 10  1  0
 12 11  1  0
 13 12  1  0
 14 13  1  0
 15  9  1  0
 15 16  1  6
 17 15  1  0
 18 17  1  1
 19 18  1  0
 19 20  1  6
 21 20  1  0
 22 21  1  0
 23 22  1  0
 24 23  1  6
 24 19  1  0
 25 24  1  0
 26 25  1  0
 27 26  1  0
 27 18  1  0
M  END
$$$$
