
     RDKit          3D

 20 22  0  0  0  0  0  0  0  0999 V2000
   13.1810   -2.5200   26.2510 C   0  0  0  0  0  0  0  0  0  0  0  0
    8.9070    0.9460   21.2810 O   0  0  0  0  0  0  0  0  0  0  0  0
   12.4100   -1.3850   26.3590 C   0  0  0  0  0  0  0  0  0  0  0  0
    9.3770   -2.7120   23.0270 O   0  0  0  0  0  0  0  0  0  0  0  0
   11.4460   -1.1060   25.4100 C   0  0  0  0  0  0  0  0  0  0  0  0
    5.7690   -4.5930   20.6500 O   0  0  0  0  0  0  0  0  0  0  0  0
   11.2220   -1.9800   24.3480 C   0  0  0  0  0  0  0  0  0  0  0  0
    5.3120   -2.1950   19.3690 O   0  0  0  0  0  0  0  0  0  0  0  0
   12.0220   -3.1170   24.2440 C   0  0  0  0  0  0  0  0  0  0  0  0
    6.8750   -0.0470   19.9070 O   0  0  0  0  0  0  0  0  0  0  0  0
   12.9880   -3.3820   25.1980 C   0  0  0  0  0  0  0  0  0  0  0  0
   10.2040   -1.6720   23.3340 C   0  0  0  0  0  0  0  0  0  0  0  0
   10.0480   -0.4570   22.7810 C   0  0  0  0  0  0  0  0  0  0  0  0
    9.0350   -0.1810   21.8030 C   0  0  0  0  0  0  0  0  0  0  0  0
    8.1700   -1.3040   21.4780 C   0  0  0  0  0  0  0  0  0  0  0  0
    7.1130   -1.2150   20.5430 C   0  0  0  0  0  0  0  0  0  0  0  0
    6.3240   -2.3120   20.2800 C   0  0  0  0  0  0  0  0  0  0  0  0
    6.5590   -3.5300   20.9340 C   0  0  0  0  0  0  0  0  0  0  0  0
    7.5920   -3.6480   21.8510 C   0  0  0  0  0  0  0  0  0  0  0  0
    8.3690   -2.5370   22.1040 C   0  0  0  0  0  0  0  0  0  0  0  0
  3  1  2  0
  5  3  1  0
  7  5  2  0
  9  7  1  0
 11  9  2  0
 11  1  1  0
 12  4  1  0
 12  7  1  0
 13 12  2  0
 14  2  2  0
 14 13  1  0
 15 14  1  0
 16 15  1  0
 16 10  1  0
 17  8  1  0
 17 16  2  0
 18 17  1  0
 18  6  1  0
 19 18  2  0
 20 15  2  0
 20 19  1  0
 20  4  1  0
M  END
