
     RDKit          3D

 16 17  0  0  0  0  0  0  0  0999 V2000
    5.8490   -4.2870   19.6810 O   0  0  0  0  0  0  0  0  0  0  0  0
    6.6330   -3.3800   19.9310 C   0  0  0  0  0  0  0  0  0  0  0  0
    7.2760   -2.6170   18.8050 C   0  0  0  0  0  0  0  0  0  0  0  0
    6.9580   -3.0330   21.1960 N   0  0  0  0  0  0  0  0  0  0  0  0
    6.4050   -3.7370   22.3620 C   0  0  0  0  0  0  0  0  0  0  0  0
    7.5150   -4.3420   23.1870 C   0  0  0  0  0  0  0  0  0  0  0  0
    8.7050   -3.5410   23.1570 O   0  0  0  0  0  0  0  0  0  0  0  0
    8.4260   -2.1620   22.9570 C   0  0  1  0  0  0  0  0  0  0  0  0
    9.7070   -1.4010   23.1980 C   0  0  0  0  0  0  0  0  0  0  0  0
    9.8390   -0.6390   24.3460 C   0  0  0  0  0  0  0  0  0  0  0  0
   10.9910    0.0760   24.5990 C   0  0  0  0  0  0  0  0  0  0  0  0
   11.9990    0.0110   23.6900 C   0  0  0  0  0  0  0  0  0  0  0  0
   11.9250   -0.7250   22.5420 C   0  0  0  0  0  0  0  0  0  0  0  0
   10.7660   -1.4390   22.3030 C   0  0  0  0  0  0  0  0  0  0  0  0
    7.8330   -1.9260   21.5740 C   0  0  0  0  0  0  0  0  0  0  0  0
   13.1320    0.7160   23.9470 F   0  0  0  0  0  0  0  0  0  0  0  0
  2  1  1  0
  3  2  1  0
  4  2  1  0
  5  4  1  0
  6  5  1  0
  7  6  1  0
  8  7  1  0
  8  9  1  6
 10  9  1  0
 11 10  1  0
 12 11  1  0
 13 12  1  0
 14  9  1  0
 14 13  1  0
 15  4  1  0
 15  8  1  0
 16 12  1  0
M  END
$$$$
