
     RDKit          3D

 18 19  0  0  0  0  0  0  0  0999 V2000
   12.2890    0.5310   24.1240 N   0  0  0  0  0  0  0  0  0  0  0  0
    8.4850    0.1630   21.5580 C   0  0  0  0  0  0  0  0  0  0  0  0
    9.2460    0.9150   20.9500 O   0  0  0  0  0  0  0  0  0  0  0  0
    8.9430   -0.6160   22.7750 C   0  0  0  0  0  0  0  0  0  0  0  0
   14.3280   -1.9250   20.5130 N   0  0  0  0  0  0  0  0  0  0  0  0
   10.4370   -0.4650   22.9410 C   0  0  0  0  0  0  0  0  0  0  0  0
    7.1790    0.0190   21.2540 N   0  0  0  0  0  0  0  0  0  0  0  0
   10.9750    0.3140   23.9540 C   0  0  0  0  0  0  0  0  0  0  0  0
    6.7210    0.6570   17.6420 N   0  0  0  0  0  0  0  0  0  0  0  0
   13.1240   -0.0460   23.2510 C   0  0  0  0  0  0  0  0  0  0  0  0
   12.6900   -0.8480   22.1940 C   0  0  0  0  0  0  0  0  0  0  0  0
   13.6180   -1.4450   21.2670 C   0  0  0  0  0  0  0  0  0  0  0  0
   11.3230   -1.0580   22.0490 C   0  0  0  0  0  0  0  0  0  0  0  0
    6.5550    0.2270   20.0070 C   0  0  0  0  0  0  0  0  0  0  0  0
    5.2940    0.8090   20.0270 C   0  0  0  0  0  0  0  0  0  0  0  0
    4.7730    1.3410   18.8620 C   0  0  0  0  0  0  0  0  0  0  0  0
    5.5170    1.2380   17.7000 C   0  0  0  0  0  0  0  0  0  0  0  0
    7.2240    0.1710   18.7830 C   0  0  0  0  0  0  0  0  0  0  0  0
  3  2  2  0
  4  2  1  0
  6  4  1  0
  7  2  1  0
  8  6  1  0
  8  1  2  0
 10  1  1  0
 11 10  2  0
 12  5  3  0
 12 11  1  0
 13  6  2  0
 13 11  1  0
 14  7  1  0
 15 14  1  0
 16 15  2  0
 17 16  1  0
 17  9  2  0
 18 14  2  0
 18  9  1  0
M  END
