
     RDKit          3D

 30 33  0  0  0  0  0  0  0  0999 V2000
    8.8410    1.4190   20.8920 O   0  0  0  0  0  0  0  0  0  0  0  0
    8.4920    0.3820   21.5220 C   0  0  0  0  0  0  0  0  0  0  0  0
    9.0600    0.1120   22.7570 N   0  0  0  0  0  0  0  0  0  0  0  0
    8.7310   -1.0910   23.5540 C   0  0  0  0  0  0  0  0  0  0  0  0
    7.9020   -1.0200   24.6880 C   0  0  0  0  0  0  0  0  0  0  0  0
    7.5520   -2.1260   25.5060 C   0  0  0  0  0  0  0  0  0  0  0  0
    8.0200   -3.4380   25.2340 C   0  0  0  0  0  0  0  0  0  0  0  0
    7.6780   -4.5930   26.0680 N   0  0  0  0  0  0  0  0  0  0  0  0
    6.4300   -4.8710   26.6730 C   0  0  0  0  0  0  0  0  0  0  0  0
    6.0770   -6.0940   27.5930 C   0  0  0  0  0  0  0  0  0  0  0  0
    7.2080   -6.8190   28.3140 C   0  0  0  0  0  0  0  0  0  0  0  0
    5.4980   -4.0690   26.4700 O   0  0  0  0  0  0  0  0  0  0  0  0
    8.8530   -3.5230   24.1120 C   0  0  0  0  0  0  0  0  0  0  0  0
    9.1980   -2.3920   23.3000 C   0  0  0  0  0  0  0  0  0  0  0  0
   10.1770    1.0040   23.3050 C   0  0  0  0  0  0  0  0  0  0  0  0
   11.4370    0.2010   23.4660 C   0  0  1  0  0  0  0  0  0  0  0  0
   11.6620   -0.5220   24.5640 C   0  0  0  0  0  0  0  0  0  0  0  0
   13.0820   -1.4430   24.4990 S   0  0  0  0  0  0  0  0  0  0  0  0
   13.3990   -0.9110   22.9270 C   0  0  0  0  0  0  0  0  0  0  0  0
   12.4340   -0.0660   22.5180 C   0  0  0  0  0  0  0  0  0  0  0  0
    7.4230   -0.4690   20.8210 C   0  0  0  0  0  0  0  0  0  0  0  0
    6.6810    0.0630   19.7100 N   0  0  0  0  0  0  0  0  0  0  0  0
    7.0690   -0.1430   18.3900 N   0  0  0  0  0  0  0  0  0  0  0  0
    6.2850    0.4390   17.5800 N   0  0  0  0  0  0  0  0  0  0  0  0
    5.2510    1.0960   18.3360 C   0  0  0  0  0  0  0  0  0  0  0  0
    5.5280    0.8390   19.6860 C   0  0  0  0  0  0  0  0  0  0  0  0
    4.6860    1.3500   20.6990 C   0  0  0  0  0  0  0  0  0  0  0  0
    3.5740    2.1170   20.3540 C   0  0  0  0  0  0  0  0  0  0  0  0
    3.3030    2.3720   18.9820 C   0  0  0  0  0  0  0  0  0  0  0  0
    4.1440    1.8570   17.9840 C   0  0  0  0  0  0  0  0  0  0  0  0
  2  1  1  0
  3  2  1  0
  4  3  1  0
  5  4  1  0
  6  5  1  0
  7  6  1  0
  8  7  1  0
  9  8  1  0
 10  9  1  0
 11 10  1  0
 12  9  1  0
 13  7  1  0
 14 13  1  0
 14  4  1  0
 15  3  1  0
 16 15  1  6
 17 16  1  0
 18 17  1  0
 19 18  1  0
 20 19  1  0
 20 16  1  0
 21  2  1  0
 22 21  1  0
 23 22  1  0
 24 23  1  0
 25 24  1  0
 26 25  1  0
 26 22  1  0
 27 26  1  0
 28 27  1  0
 29 28  1  0
 30 29  1  0
 30 25  1  0
M  END
