
     RDKit          3D

 19 20  0  0  0  0  0  0  0  0999 V2000
    6.5050   -5.1870   21.7040 N   0  0  0  0  0  0  0  0  0  0  0  0
    7.7090   -3.5960   20.2730 C   0  0  0  0  0  0  0  0  0  0  0  0
    5.6900   -4.7160   19.6680 O   0  0  0  0  0  0  0  0  0  0  0  0
    0.8670   -1.3190   25.6000 Cl  0  0  0  0  0  0  0  0  0  0  0  0
    6.5630   -4.5590   20.5140 C   0  0  0  0  0  0  0  0  0  0  0  0
    5.6180   -5.3740   24.3500 N   0  0  0  0  0  0  0  0  0  0  0  0
    4.0930   -6.3980   25.9910 O   0  0  0  0  0  0  0  0  0  0  0  0
    2.3840   -3.8680   25.7430 S   0  0  0  0  0  0  0  0  0  0  0  0
    5.4510   -6.1340   22.0590 C   0  0  0  0  0  0  0  0  0  0  0  0
    6.1270   -5.1940   26.7420 O   0  0  0  0  0  0  0  0  0  0  0  0
    4.6800   -5.6110   23.2390 C   0  0  0  0  0  0  0  0  0  0  0  0
    6.6870   -4.4230   24.0010 C   0  0  0  0  0  0  0  0  0  0  0  0
    7.4350   -4.9630   22.8130 C   0  0  0  0  0  0  0  0  0  0  0  0
    4.0800   -3.8460   25.9840 C   0  0  0  0  0  0  0  0  0  0  0  0
    4.5800   -2.5920   26.2440 C   0  0  0  0  0  0  0  0  0  0  0  0
    3.6070   -1.5920   25.9950 C   0  0  0  0  0  0  0  0  0  0  0  0
    2.3520   -2.1530   25.7910 C   0  0  0  0  0  0  0  0  0  0  0  0
    5.0080   -5.3070   25.8600 S   0  0  0  0  0  0  0  0  0  0  0  0
    8.2650   -3.4480   18.5600 S   0  0  0  0  0  0  0  0  0  0  0  0
  5  3  2  0
  5  2  1  0
  5  1  1  0
  9  1  1  0
 11  9  1  0
 11  6  1  0
 12  6  1  0
 13  1  1  0
 13 12  1  0
 14  8  1  0
 15 14  2  0
 16 15  1  0
 17 16  2  0
 17  8  1  0
 17  4  1  0
 18  7  2  0
 18 14  1  0
 18 10  2  0
 18  6  1  0
  2 19  1  0
M  END
