
     RDKit          3D

 20 22  0  0  0  0  0  0  0  0999 V2000
    6.5600    0.6310   17.6830 N   0  0  0  0  0  0  0  0  0  0  0  0
    5.0170    0.6410   21.7110 C   0  0  0  0  0  0  0  0  0  0  0  0
    8.9620    0.8330   21.3160 O   0  0  0  0  0  0  0  0  0  0  0  0
   14.0530   -1.3620   21.2230 Cl  0  0  0  0  0  0  0  0  0  0  0  0
    5.5480    0.5990   20.3020 C   0  0  0  0  0  0  0  0  0  0  0  0
    7.4420   -0.7880   20.9710 N   0  0  0  0  0  0  0  0  0  0  0  0
    4.9040    1.2920   19.2820 C   0  0  0  0  0  0  0  0  0  0  0  0
    5.4360    1.2830   18.0100 C   0  0  0  0  0  0  0  0  0  0  0  0
    7.1750   -0.0530   18.6510 C   0  0  0  0  0  0  0  0  0  0  0  0
    6.7210   -0.1000   19.9680 C   0  0  0  0  0  0  0  0  0  0  0  0
    8.4950   -0.2560   21.6200 C   0  0  0  0  0  0  0  0  0  0  0  0
    9.0980   -1.0700   22.7810 C   0  0  2  0  0  0  0  0  0  0  0  0
    8.5610   -2.4830   22.9830 C   0  0  0  0  0  0  0  0  0  0  0  0
    8.1290   -1.4030   23.9130 C   0  0  0  0  0  0  0  0  0  0  0  0
   10.5610   -0.7160   23.0350 C   0  0  2  0  0  0  0  0  0  0  0  0
   10.8960    0.2720   23.9540 C   0  0  0  0  0  0  0  0  0  0  0  0
   12.1690    0.8140   23.9750 C   0  0  0  0  0  0  0  0  0  0  0  0
   13.1410    0.3470   23.1020 C   0  0  0  0  0  0  0  0  0  0  0  0
   12.8170   -0.6820   22.2420 C   0  0  0  0  0  0  0  0  0  0  0  0
   11.5470   -1.2160   22.1940 C   0  0  0  0  0  0  0  0  0  0  0  0
  5  2  1  0
  7  5  1  0
  8  7  1  0
  8  1  1  0
  9  1  1  0
 10  9  1  0
 10  6  1  0
 10  5  1  0
 11  6  1  0
 11  3  1  0
 12 11  1  6
 13 12  1  0
 14 13  1  0
 14 12  1  0
 15 12  1  0
 15 16  1  6
 17 16  1  0
 18 17  1  0
 19  4  1  0
 19 18  1  0
 20 15  1  0
 20 19  1  0
M  END
$$$$
