
     RDKit          3D

 20 21  0  0  0  0  0  0  0  0999 V2000
    6.1210   -5.3110   24.2750 N   0  0  0  0  0  0  0  0  0  0  0  0
    1.0870   -1.0810   25.8160 C   0  0  0  0  0  0  0  0  0  0  0  0
    6.5230   -4.8190   26.6460 O   0  0  0  0  0  0  0  0  0  0  0  0
    2.1750   -2.1150   25.8100 C   0  0  0  0  0  0  0  0  0  0  0  0
    6.7820   -4.0960   23.7690 C   0  0  0  0  0  0  0  0  0  0  0  0
    6.5540   -4.6380   20.4230 C   0  0  0  0  0  0  0  0  0  0  0  0
    7.2130   -3.3550   19.9930 C   0  0  0  0  0  0  0  0  0  0  0  0
    3.4210   -1.8390   26.3500 C   0  0  0  0  0  0  0  0  0  0  0  0
    4.4330   -2.7810   26.3500 C   0  0  0  0  0  0  0  0  0  0  0  0
    4.1990   -4.0260   25.7870 C   0  0  0  0  0  0  0  0  0  0  0  0
    2.9590   -4.3280   25.2460 C   0  0  0  0  0  0  0  0  0  0  0  0
    1.9640   -3.3690   25.2600 C   0  0  0  0  0  0  0  0  0  0  0  0
    5.3380   -5.9810   23.2260 C   0  0  0  0  0  0  0  0  0  0  0  0
    6.2750   -6.3740   22.1150 C   0  0  0  0  0  0  0  0  0  0  0  0
    7.6980   -4.4680   22.6310 C   0  0  0  0  0  0  0  0  0  0  0  0
    6.9480   -5.1840   21.5950 N   0  0  0  0  0  0  0  0  0  0  0  0
    4.8400   -6.5140   26.0040 O   0  0  0  0  0  0  0  0  0  0  0  0
    5.6780   -5.1370   19.7280 O   0  0  0  0  0  0  0  0  0  0  0  0
    5.4730   -5.2520   25.7790 S   0  0  1  0  0  0  0  0  0  0  0  0
    8.4640   -3.4780   18.6790 S   0  0  0  0  0  0  0  0  0  0  0  0
  4  2  1  0
  5  1  1  0
  7  6  1  0
  8  4  1  0
  9  8  1  0
 10  9  1  0
 11 10  1  0
 12 11  1  0
 12  4  1  0
 13  1  1  0
 14 13  1  0
 15  5  1  0
 16 14  1  0
 16  6  1  0
 16 15  1  0
 18  6  1  0
 19 17  1  1
 19 10  1  0
 19  3  1  0
 19  1  1  0
  7 20  1  0
M  END
$$$$
