
     RDKit          3D

  8  8  0  0  0  0  0  0  0  0999 V2000
   -0.4210    6.3040  -17.5170 C   0  0  0  0  0  0  0  0  0  0  0  0
   -0.5420    5.2290  -18.3750 C   0  0  0  0  0  0  0  0  0  0  0  0
   -0.1380    5.2330  -19.8280 C   0  0  0  0  0  0  0  0  0  0  0  0
   -1.0590    4.1440  -17.7260 O   0  0  0  0  0  0  0  0  0  0  0  0
   -1.3270    4.5160  -16.3640 N   0  0  0  0  0  0  0  0  0  0  0  0
   -0.9320    5.8310  -16.2860 C   0  0  0  0  0  0  0  0  0  0  0  0
   -1.0100    6.5900  -15.0190 C   0  0  0  0  0  0  0  0  0  0  0  0
   -0.1750    7.4450  -14.7790 O   0  0  0  0  0  0  0  0  0  0  0  0
  2  1  1  0
  3  2  1  0
  4  2  1  0
  5  4  1  0
  6  5  1  0
  6  1  1  0
  7  6  1  0
  8  7  1  0
M  END
$$$$
