
     RDKit          3D

 24 26  0  0  0  0  0  0  0  0999 V2000
    6.7450   -1.0430   20.3020 N   0  0  0  0  0  0  0  0  0  0  0  0
    7.4870   -3.2760   19.7890 C   0  0  0  0  0  0  0  0  0  0  0  0
    6.4360   -3.6060   19.2820 O   0  0  0  0  0  0  0  0  0  0  0  0
    7.7710   -2.0010   20.3680 C   0  0  0  0  0  0  0  0  0  0  0  0
    9.5530    3.0640   22.9840 N   0  0  0  0  0  0  0  0  0  0  0  0
    7.1080   -0.3590   18.1530 O   0  0  0  0  0  0  0  0  0  0  0  0
    8.5060    0.9690   21.6170 S   0  0  0  0  0  0  0  0  0  0  0  0
    6.4780   -0.2750   19.2030 C   0  0  0  0  0  0  0  0  0  0  0  0
    9.2710    5.6840   24.0010 O   0  0  0  0  0  0  0  0  0  0  0  0
    5.4200    0.7330   19.3700 C   0  0  0  0  0  0  0  0  0  0  0  0
    4.7360    1.1700   20.4890 C   0  0  0  0  0  0  0  0  0  0  0  0
    3.7970    2.1670   20.1660 C   0  0  0  0  0  0  0  0  0  0  0  0
    3.7730    2.4600   18.8510 C   0  0  0  0  0  0  0  0  0  0  0  0
    8.9910   -1.7230   20.9870 C   0  0  0  0  0  0  0  0  0  0  0  0
    9.4190   -0.5080   21.6060 C   0  0  0  0  0  0  0  0  0  0  0  0
   10.5920   -0.3630   22.3200 C   0  0  0  0  0  0  0  0  0  0  0  0
   10.7600    0.9150   22.8870 C   0  0  0  0  0  0  0  0  0  0  0  0
    9.7070    1.7630   22.5970 C   0  0  0  0  0  0  0  0  0  0  0  0
    8.2740    3.7820   22.8440 C   0  0  0  0  0  0  0  0  0  0  0  0
    8.5210    5.2740   22.8430 C   0  0  0  0  0  0  0  0  0  0  0  0
   10.5420    5.0250   24.0490 C   0  0  0  0  0  0  0  0  0  0  0  0
   10.3860    3.5220   24.1060 C   0  0  0  0  0  0  0  0  0  0  0  0
    4.8850    1.5300   17.9600 S   0  0  0  0  0  0  0  0  0  0  0  0
    8.7100   -3.6620   18.6730 S   0  0  0  0  0  0  0  0  0  0  0  0
  3  2  2  0
  4  2  1  0
  4  1  1  0
  8  6  2  0
  8  1  1  0
 10  8  1  0
 11 10  2  0
 12 11  1  0
 13 12  2  0
 14  4  2  3
 15 14  1  0
 15  7  1  0
 16 15  2  0
 17 16  1  0
 18  7  1  0
 18 17  2  0
 18  5  1  0
 19  5  1  0
 20 19  1  0
 20  9  1  0
 21  9  1  0
 22 21  1  0
 22  5  1  0
 23 13  1  0
 23 10  1  0
  2 24  1  0
M  END
