
     RDKit          3D

 12 13  0  0  0  0  0  0  0  0999 V2000
   24.8750   35.5650  -27.0360 N   0  0  0  0  0  0  0  0  0  0  0  0
   25.1120   36.8270  -26.3670 C   0  0  0  0  0  0  0  0  0  0  0  0
   26.3950   37.0700  -25.8090 C   0  0  0  0  0  0  0  0  0  0  0  0
   26.6450   38.2830  -25.1540 C   0  0  0  0  0  0  0  0  0  0  0  0
   25.6220   39.2470  -25.0610 C   0  0  0  0  0  0  0  0  0  0  0  0
   25.8940   40.5320  -24.3660 O   0  0  0  0  0  0  0  0  0  0  0  0
   24.9930   41.6410  -24.5040 C   0  0  0  0  0  0  0  0  0  0  0  0
   25.3590   42.6970  -24.1190 O   0  0  0  0  0  0  0  0  0  0  0  0
   23.6430   41.4090  -25.0980 C   0  0  0  0  0  0  0  0  0  0  0  0
   23.2760   40.0570  -25.4990 C   0  0  0  0  0  0  0  0  0  0  0  0
   24.3540   39.0000  -25.6150 C   0  0  0  0  0  0  0  0  0  0  0  0
   24.1200   37.7720  -26.2680 C   0  0  0  0  0  0  0  0  0  0  0  0
  2  1  1  0
  3  2  1  0
  4  3  1  0
  5  4  1  0
  6  5  1  0
  7  6  1  0
  8  7  1  0
  9  7  1  0
 10  9  1  0
 11 10  1  0
 11  5  1  0
 12  2  1  0
 12 11  1  0
M  END
$$$$
