
     RDKit          3D

 11 11  0  0  0  0  0  0  0  0999 V2000
   29.1760   52.9800   -6.0770 O   0  0  0  0  0  0  0  0  0  0  0  0
   28.7920   53.3220   -7.1910 C   0  0  0  0  0  0  0  0  0  0  0  0
   28.6490   54.7550   -7.6150 C   0  0  0  0  0  0  0  0  0  0  0  0
   29.1850   55.6930   -6.6170 C   0  0  0  0  0  0  0  0  0  0  0  0
   28.4540   52.4480   -8.1720 N   0  0  0  0  0  0  0  0  0  0  0  0
   28.5800   51.0850   -8.0700 C   0  0  0  0  0  0  0  0  0  0  0  0
   29.1300   50.2710   -6.6450 S   0  0  0  0  0  0  0  0  0  0  0  0
   28.8940   48.7780   -7.4740 C   0  0  0  0  0  0  0  0  0  0  0  0
   28.4460   48.9810   -8.7360 C   0  0  0  0  0  0  0  0  0  0  0  0
   28.2590   50.3120   -9.0770 N   0  0  0  0  0  0  0  0  0  0  0  0
   28.2030   47.9280   -9.7700 C   0  0  0  0  0  0  0  0  0  0  0  0
  2  1  2  0
  3  2  1  0
  4  3  1  0
  5  2  1  0
  6  5  1  0
  7  6  1  0
  8  7  1  0
  9  8  2  0
 10  9  1  0
 10  6  2  0
 11  9  1  0
M  END
