
     RDKit          3D

 25 28  0  0  0  0  0  0  0  0999 V2000
   14.0360   -1.3150   21.3130 Cl  0  0  0  0  0  0  0  0  0  0  0  0
   12.7780   -0.6790   22.3420 C   0  0  0  0  0  0  0  0  0  0  0  0
   11.4780   -1.0890   22.1350 C   0  0  0  0  0  0  0  0  0  0  0  0
   13.1040    0.2150   23.3390 C   0  0  0  0  0  0  0  0  0  0  0  0
   12.1040    0.6970   24.1670 C   0  0  0  0  0  0  0  0  0  0  0  0
   10.7800    0.3020   23.9730 C   0  0  2  0  0  0  0  0  0  0  0  0
    9.7630    0.6940   24.8450 N   0  0  0  0  0  0  0  0  0  0  0  0
   10.0790    1.3880   26.0870 C   0  0  0  0  0  0  0  0  0  0  0  0
   10.4570   -0.5920   22.9400 C   0  0  0  0  0  0  0  0  0  0  0  0
    9.0230   -1.0050   22.6770 C   0  0  1  0  0  0  0  0  0  0  0  0
    8.1440   -0.8620   23.9350 C   0  0  0  0  0  0  0  0  0  0  0  0
    8.3390    0.5050   24.5840 C   0  0  0  0  0  0  0  0  0  0  0  0
    8.4780   -0.1570   21.5280 C   0  0  0  0  0  0  0  0  0  0  0  0
    8.9820    0.9200   21.2110 O   0  0  0  0  0  0  0  0  0  0  0  0
    7.4000   -0.6840   20.9070 N   0  0  0  0  0  0  0  0  0  0  0  0
    6.6510   -0.1170   19.8570 C   0  0  1  0  0  0  0  0  0  0  0  0
    5.5120    0.6810   20.1880 C   0  0  0  0  0  0  0  0  0  0  0  0
    5.0540    0.8910   21.5170 C   0  0  0  0  0  0  0  0  0  0  0  0
    3.9770    1.6940   21.7680 C   0  0  0  0  0  0  0  0  0  0  0  0
    3.3020    2.3210   20.7290 C   0  0  0  0  0  0  0  0  0  0  0  0
    3.7010    2.1490   19.4330 C   0  0  0  0  0  0  0  0  0  0  0  0
    4.8170    1.3290   19.1270 C   0  0  0  0  0  0  0  0  0  0  0  0
    5.3080    1.1410   17.8090 C   0  0  0  0  0  0  0  0  0  0  0  0
    6.3700    0.4040   17.5070 N   0  0  0  0  0  0  0  0  0  0  0  0
    7.0040   -0.2120   18.5120 C   0  0  0  0  0  0  0  0  0  0  0  0
  2  1  1  0
  3  2  1  0
  4  2  1  0
  5  4  1  0
  6  5  1  1
  7  6  1  0
  8  7  1  0
  9  6  1  0
  9  3  1  0
 10  9  1  0
 11 10  1  0
 12 11  1  0
 12  7  1  0
 10 13  1  6
 14 13  1  0
 15 13  1  0
 16 15  1  1
 17 16  1  0
 18 17  1  0
 19 18  1  0
 20 19  1  0
 21 20  1  0
 22 21  1  0
 22 17  1  0
 23 22  1  0
 24 23  1  0
 25 24  1  0
 25 16  1  0
M  END
$$$$
