
     RDKit          3D

 22 23  0  0  0  0  0  0  0  0999 V2000
    5.5910   -5.1790   20.2220 N   0  0  0  0  0  0  0  0  0  0  0  0
    5.8580   -5.0800   21.3320 C   0  0  0  0  0  0  0  0  0  0  0  0
    6.2600   -4.9300   22.6860 C   0  0  2  0  0  0  0  0  0  0  0  0
    7.5160   -4.4780   22.9020 C   0  0  0  0  0  0  0  0  0  0  0  0
    8.2930   -3.8250   21.9590 N   0  0  0  0  0  0  0  0  0  0  0  0
    7.8660   -3.0200   20.9460 C   0  0  2  0  0  0  0  0  0  0  0  0
    8.9500   -2.5210   20.0180 C   0  0  0  0  0  0  0  0  0  0  0  0
    6.7220   -2.5710   20.8910 O   0  0  0  0  0  0  0  0  0  0  0  0
    8.0860   -4.6160   24.1290 N   0  0  0  0  0  0  0  0  0  0  0  0
    7.4670   -5.2010   25.1960 C   0  0  0  0  0  0  0  0  0  0  0  0
    8.3580   -5.2610   26.7050 S   0  0  0  0  0  0  0  0  0  0  0  0
   10.0560   -5.4410   26.1510 C   0  0  0  0  0  0  0  0  0  0  0  0
    5.3810   -5.4730   23.8070 C   0  0  2  0  0  0  0  0  0  0  0  0
    6.2030   -5.6820   25.0790 C   0  0  1  0  0  0  0  0  0  0  0  0
    5.6420   -6.4630   26.1210 C   0  0  0  0  0  0  0  0  0  0  0  0
    5.1580   -7.1090   26.9340 N   0  0  0  0  0  0  0  0  0  0  0  0
    4.6900   -6.7230   23.2020 C   0  0  0  0  0  0  0  0  0  0  0  0
    3.2770   -6.9940   23.7040 C   0  0  0  0  0  0  0  0  0  0  0  0
    2.4050   -5.7640   23.5770 C   0  0  0  0  0  0  0  0  0  0  0  0
    2.9980   -4.6170   24.3610 C   0  0  0  0  0  0  0  0  0  0  0  0
    4.3960   -4.2780   23.8580 C   0  0  0  0  0  0  0  0  0  0  0  0
    8.2140   -3.0790   18.4610 S   0  0  0  0  0  0  0  0  0  0  0  0
  2  1  1  0
  3  2  1  6
  4  3  1  0
  5  4  1  0
  6  5  1  0
  7  6  1  0
  6  8  1  1
  9  4  1  0
 10  9  1  0
 11 10  1  0
 12 11  1  0
 13  3  1  0
 14 13  1  0
 14 10  1  0
 14 15  1  6
 16 15  1  0
 13 17  1  6
 18 17  1  0
 19 18  1  0
 20 19  1  0
 21 13  1  0
 21 20  1  0
  7 22  1  0
M  END
