
     RDKit          3D

 22 24  0  0  0  0  0  0  0  0999 V2000
    6.4820    0.4930   17.6400 N   0  0  0  0  0  0  0  0  0  0  0  0
    5.6360    0.7950   20.2890 C   0  0  0  0  0  0  0  0  0  0  0  0
   12.4510    0.5920   24.0200 C   0  0  0  0  0  0  0  0  0  0  0  0
    9.3250    1.0650   21.3070 O   0  0  0  0  0  0  0  0  0  0  0  0
    8.3040   -0.1640   24.0890 C   0  0  0  0  0  0  0  0  0  0  0  0
    4.9460    1.3890   19.2420 C   0  0  0  0  0  0  0  0  0  0  0  0
    8.7020    0.0650   21.6430 C   0  0  0  0  0  0  0  0  0  0  0  0
    6.7870    0.0570   19.9810 C   0  0  0  0  0  0  0  0  0  0  0  0
    7.1280   -0.1050   18.6420 C   0  0  0  0  0  0  0  0  0  0  0  0
   11.0950    0.3030   23.9730 C   0  0  0  0  0  0  0  0  0  0  0  0
   12.8090   -0.9360   22.2300 C   0  0  0  0  0  0  0  0  0  0  0  0
    8.9390    1.1300   24.5280 C   0  0  0  0  0  0  0  0  0  0  0  0
   13.3120   -0.0180   23.1260 C   0  0  0  0  0  0  0  0  0  0  0  0
   11.4660   -1.2440   22.1820 C   0  0  0  0  0  0  0  0  0  0  0  0
    5.0830    0.8590   21.6920 C   0  0  0  0  0  0  0  0  0  0  0  0
    7.6980   -0.4310   20.9180 N   0  0  0  0  0  0  0  0  0  0  0  0
    5.7840    1.7850   22.5090 O   0  0  0  0  0  0  0  0  0  0  0  0
   10.3160    0.9370   24.9110 O   0  0  0  0  0  0  0  0  0  0  0  0
    9.0730   -0.7490   22.8830 C   0  0  1  0  0  0  0  0  0  0  0  0
    5.4130    1.2310   17.9520 C   0  0  0  0  0  0  0  0  0  0  0  0
   10.5750   -0.5970   23.0380 C   0  0  0  0  0  0  0  0  0  0  0  0
   13.8990   -1.7370   21.1310 Cl  0  0  0  0  0  0  0  0  0  0  0  0
  6  2  1  0
  7  4  2  0
  8  2  2  0
  9  8  1  0
  9  1  2  0
 10  3  2  0
 12  5  1  0
 13 11  2  0
 13  3  1  0
 14 11  1  0
 15  2  1  0
 16  8  1  0
 16  7  1  0
 17 15  1  0
 18 12  1  0
 18 10  1  0
 19  7  1  6
 19  5  1  0
 20  6  2  0
 20  1  1  0
 21 19  1  0
 21 14  2  0
 21 10  1  0
 22 11  1  0
M  END
