
     RDKit          3D

 25 26  0  0  0  0  0  0  0  0999 V2000
    6.2150    1.3890   24.6080 N   0  0  0  0  0  0  0  0  0  0  0  0
    6.1140    0.7740   25.5580 C   0  0  0  0  0  0  0  0  0  0  0  0
    6.0450   -0.0430   26.7750 C   0  0  2  0  0  0  0  0  0  0  0  0
    4.7500   -0.8600   26.7250 C   0  0  0  0  0  0  0  0  0  0  0  0
    6.0450    0.8990   27.9840 C   0  0  0  0  0  0  0  0  0  0  0  0
    7.2900   -0.9490   26.8180 C   0  0  0  0  0  0  0  0  0  0  0  0
    8.5550   -0.2530   26.6940 N   0  0  0  0  0  0  0  0  0  0  0  0
    9.3520   -0.2150   25.5610 C   0  0  0  0  0  0  0  0  0  0  0  0
   10.5710    0.4550   25.5820 C   0  0  0  0  0  0  0  0  0  0  0  0
   11.3660    0.4240   24.4520 C   0  0  0  0  0  0  0  0  0  0  0  0
   12.9000    1.2480   24.4770 Cl  0  0  0  0  0  0  0  0  0  0  0  0
   10.9730   -0.2270   23.3000 C   0  0  0  0  0  0  0  0  0  0  0  0
    8.9390   -0.8590   24.3980 C   0  0  0  0  0  0  0  0  0  0  0  0
    9.7360   -0.8600   23.2610 C   0  0  0  0  0  0  0  0  0  0  0  0
    9.2300   -1.4810   21.9800 C   0  0  0  0  0  0  0  0  0  0  0  0
    8.4700   -0.4560   21.1630 C   0  0  0  0  0  0  0  0  0  0  0  0
    8.9570    0.6330   20.8730 O   0  0  0  0  0  0  0  0  0  0  0  0
    7.2420   -0.8440   20.7600 N   0  0  0  0  0  0  0  0  0  0  0  0
    6.5570   -0.1110   19.7660 C   0  0  0  0  0  0  0  0  0  0  0  0
    5.5170    0.7560   20.1190 C   0  0  0  0  0  0  0  0  0  0  0  0
    5.1290    0.9920   21.5550 C   0  0  0  0  0  0  0  0  0  0  0  0
    6.9670   -0.1680   18.4360 C   0  0  0  0  0  0  0  0  0  0  0  0
    6.4270    0.5850   17.4700 N   0  0  0  0  0  0  0  0  0  0  0  0
    5.3960    1.3690   17.8070 C   0  0  0  0  0  0  0  0  0  0  0  0
    4.9120    1.4780   19.0960 C   0  0  0  0  0  0  0  0  0  0  0  0
  2  1  3  0
  3  2  1  0
  3  4  1  6
  5  3  1  0
  6  3  1  0
  7  6  1  0
  8  7  1  0
  9  8  2  0
 10  9  1  0
 11 10  1  0
 12 10  2  0
 13  8  1  0
 14 13  2  0
 14 12  1  0
 15 14  1  0
 16 15  1  0
 17 16  2  0
 18 16  1  0
 19 18  1  0
 20 19  2  0
 21 20  1  0
 22 19  1  0
 23 22  2  0
 24 23  1  0
 25 24  2  0
 25 20  1  0
M  END
