
     RDKit          3D

 18 19  0  0  0  0  0  0  0  0999 V2000
    6.7270   -2.6390   21.0170 N   0  0  0  0  0  0  0  0  0  0  0  0
    7.0470   -2.6150   18.5810 C   0  0  0  0  0  0  0  0  0  0  0  0
    5.7380   -4.2160   19.7230 O   0  0  0  0  0  0  0  0  0  0  0  0
   13.9540   -1.1570   21.4730 Cl  0  0  0  0  0  0  0  0  0  0  0  0
    6.4470   -3.2200   19.8240 C   0  0  0  0  0  0  0  0  0  0  0  0
    8.4320   -2.2610   23.2740 N   0  0  0  0  0  0  0  0  0  0  0  0
    6.3870   -3.2460   22.3040 C   0  0  0  0  0  0  0  0  0  0  0  0
    7.6460   -3.4860   23.1060 C   0  0  0  0  0  0  0  0  0  0  0  0
    9.6620   -2.5540   24.0190 C   0  0  0  0  0  0  0  0  0  0  0  0
   10.7630   -1.5410   23.8260 C   0  0  0  0  0  0  0  0  0  0  0  0
   10.8240   -0.3860   24.5890 C   0  0  0  0  0  0  0  0  0  0  0  0
   11.8410    0.5310   24.3940 C   0  0  0  0  0  0  0  0  0  0  0  0
   12.8160    0.3110   23.4430 C   0  0  0  0  0  0  0  0  0  0  0  0
   12.7470   -0.8370   22.6850 C   0  0  0  0  0  0  0  0  0  0  0  0
   11.7390   -1.7560   22.8700 C   0  0  0  0  0  0  0  0  0  0  0  0
    8.7090   -1.6360   21.9760 C   0  0  0  0  0  0  0  0  0  0  0  0
    7.4240   -1.3750   21.2250 C   0  0  0  0  0  0  0  0  0  0  0  0
    8.7090   -3.2630   18.2810 S   0  0  0  0  0  0  0  0  0  0  0  0
  5  3  2  0
  5  2  1  0
  5  1  1  0
  7  1  1  0
  8  7  1  0
  8  6  1  0
  9  6  1  0
 10  9  1  0
 11 10  2  0
 12 11  1  0
 13 12  2  0
 14  4  1  0
 14 13  1  0
 15 10  1  0
 15 14  2  0
 16  6  1  0
 17  1  1  0
 17 16  1  0
  2 18  1  0
M  END
