
     RDKit          3D

  7  6  0  0  0  0  0  0  0  0999 V2000
    6.2190   -4.8720   16.8620 N   0  0  0  0  0  0  0  0  0  0  0  0
    7.6270   -5.2260   16.7890 C   0  0  2  0  0  0  0  0  0  0  0  0
    7.8600   -6.5950   16.1630 C   0  0  0  0  0  0  0  0  0  0  0  0
    7.1370   -7.5620   16.4000 O   0  0  0  0  0  0  0  0  0  0  0  0
    8.2970   -5.2260   18.1600 C   0  0  0  0  0  0  0  0  0  0  0  0
    8.3290   -3.6150   18.8610 S   0  0  0  0  0  0  0  0  0  0  0  0
    7.0740   -3.5470   19.6880 O   0  0  0  0  0  0  0  0  0  0  0  0
  2  1  1  1
  3  2  1  0
  4  3  1  0
  5  2  1  0
  6  5  1  0
  7  6  1  0
M  END
$$$$
