
     RDKit          3D

 18 20  0  0  0  0  0  0  0  0999 V2000
   26.7290   57.2970   -7.1450 O   0  0  0  0  0  0  0  0  0  0  0  0
   27.1730   56.8940   -8.2240 C   0  0  0  0  0  0  0  0  0  0  0  0
   26.5080   57.2480   -9.4990 C   0  0  0  0  0  0  0  0  0  0  0  0
   26.9960   56.7060  -10.6530 O   0  0  0  0  0  0  0  0  0  0  0  0
   26.1770   57.1540  -11.6540 C   0  0  0  0  0  0  0  0  0  0  0  0
   25.2230   57.9380  -11.1690 C   0  0  0  0  0  0  0  0  0  0  0  0
   25.4250   58.0110   -9.7740 C   0  0  0  0  0  0  0  0  0  0  0  0
   28.2600   56.1250   -8.3190 N   0  0  0  0  0  0  0  0  0  0  0  0
   29.0150   55.7480   -7.1420 C   0  0  0  0  0  0  0  0  0  0  0  0
   28.9520   54.2600   -6.8970 C   0  0  0  0  0  0  0  0  0  0  0  0
   28.5980   53.3980   -7.8800 N   0  0  0  0  0  0  0  0  0  0  0  0
   28.6640   52.1280   -7.3490 C   0  0  0  0  0  0  0  0  0  0  0  0
   29.0700   52.2970   -6.0250 C   0  0  0  0  0  0  0  0  0  0  0  0
   29.2380   53.6530   -5.7610 N   0  0  0  0  0  0  0  0  0  0  0  0
   28.4320   50.8770   -7.8890 C   0  0  0  0  0  0  0  0  0  0  0  0
   28.6290   49.7730   -7.0720 C   0  0  0  0  0  0  0  0  0  0  0  0
   29.0390   49.9260   -5.7510 C   0  0  0  0  0  0  0  0  0  0  0  0
   29.2610   51.1850   -5.2130 C   0  0  0  0  0  0  0  0  0  0  0  0
  2  1  2  0
  3  2  1  0
  4  3  1  0
  5  4  1  0
  6  5  2  0
  7  6  1  0
  7  3  2  0
  8  2  1  0
  9  8  1  0
 10  9  1  0
 11 10  2  0
 12 11  1  0
 13 12  2  0
 14 13  1  0
 14 10  1  0
 15 12  1  0
 16 15  2  0
 17 16  1  0
 18 17  2  0
 18 13  1  0
M  END
