
     RDKit          3D

 26 28  0  0  0  0  0  0  0  0999 V2000
    6.1500   -3.2270   20.7340 O   0  0  0  0  0  0  0  0  0  0  0  0
    6.8570   -2.4690   21.3850 C   0  0  0  0  0  0  0  0  0  0  0  0
    6.9380   -2.5440   22.7300 N   0  0  0  0  0  0  0  0  0  0  0  0
    7.1960   -3.7620   23.4690 C   0  0  0  0  0  0  0  0  0  0  0  0
    6.2160   -4.8770   23.2910 C   0  0  0  0  0  0  0  0  0  0  0  0
    5.0870   -5.1670   23.9970 C   0  0  0  0  0  0  0  0  0  0  0  0
    6.4550   -5.9070   22.4390 N   0  0  0  0  0  0  0  0  0  0  0  0
    5.5390   -6.8290   22.6120 N   0  0  0  0  0  0  0  0  0  0  0  0
    4.7090   -6.3810   23.5740 N   0  0  0  0  0  0  0  0  0  0  0  0
    3.6000   -7.1870   24.0690 C   0  0  0  0  0  0  0  0  0  0  0  0
    7.6670   -1.5510   20.7750 N   0  0  0  0  0  0  0  0  0  0  0  0
    7.6020   -1.3900   19.3180 C   0  0  0  0  0  0  0  0  0  0  0  0
    6.7340   -0.2330   18.8790 C   0  0  0  0  0  0  0  0  0  0  0  0
    6.9130    0.3790   17.6510 C   0  0  0  0  0  0  0  0  0  0  0  0
    6.1710    1.4030   17.2090 N   0  0  0  0  0  0  0  0  0  0  0  0
    5.2030    1.8540   18.0170 C   0  0  0  0  0  0  0  0  0  0  0  0
    4.9510    1.3250   19.2630 C   0  0  0  0  0  0  0  0  0  0  0  0
    5.7280    0.2650   19.6920 C   0  0  0  0  0  0  0  0  0  0  0  0
    8.7330   -0.7990   21.4580 C   0  0  0  0  0  0  0  0  0  0  0  0
    9.7280   -1.7020   22.1890 C   0  0  0  0  0  0  0  0  0  0  0  0
   10.9940   -1.0000   22.6180 C   0  0  0  0  0  0  0  0  0  0  0  0
   12.2130   -1.3320   22.0410 C   0  0  0  0  0  0  0  0  0  0  0  0
   13.3730   -0.6620   22.3980 C   0  0  0  0  0  0  0  0  0  0  0  0
   13.3310    0.3360   23.3510 C   0  0  0  0  0  0  0  0  0  0  0  0
   12.1300    0.6590   23.9520 C   0  0  0  0  0  0  0  0  0  0  0  0
   10.9670   -0.0020   23.5860 C   0  0  0  0  0  0  0  0  0  0  0  0
  2  1  2  0
  3  2  1  0
  4  3  1  0
  5  4  1  0
  6  5  2  0
  7  5  1  0
  8  7  2  0
  9  6  1  0
  9  8  1  0
 10  9  1  0
 11  2  1  0
 12 11  1  0
 13 12  1  0
 14 13  2  0
 15 14  1  0
 16 15  2  0
 17 16  1  0
 18 17  2  0
 18 13  1  0
 19 11  1  0
 20 19  1  0
 21 20  1  0
 22 21  2  0
 23 22  1  0
 24 23  2  0
 25 24  1  0
 26 25  2  0
 26 21  1  0
M  END
