
     RDKit          3D

 24 26  0  0  0  0  0  0  0  0999 V2000
   13.7020    6.8510   22.0600 O   0  0  0  0  0  0  0  0  0  0  0  0
   13.4480    5.7270   22.4850 C   0  0  0  0  0  0  0  0  0  0  0  0
   12.8240    5.1610   23.7500 C   0  0  0  0  0  0  0  0  0  0  0  0
   13.5700    4.5070   21.9280 N   0  0  0  0  0  0  0  0  0  0  0  0
   12.5790    3.9090   22.8990 C   0  0  1  0  0  0  0  0  0  0  0  0
   13.1820    2.7520   23.4980 O   0  0  0  0  0  0  0  0  0  0  0  0
   12.6740    1.5530   23.0600 C   0  0  0  0  0  0  0  0  0  0  0  0
   13.6190    0.6330   22.6330 C   0  0  0  0  0  0  0  0  0  0  0  0
   13.1810   -0.6140   22.2460 C   0  0  0  0  0  0  0  0  0  0  0  0
   14.3430   -1.7760   21.6760 Cl  0  0  0  0  0  0  0  0  0  0  0  0
   11.8440   -0.9620   22.2740 C   0  0  0  0  0  0  0  0  0  0  0  0
   11.3240    1.2340   23.0910 C   0  0  0  0  0  0  0  0  0  0  0  0
   10.9000   -0.0270   22.6860 C   0  0  0  0  0  0  0  0  0  0  0  0
    9.4260   -0.3600   22.6340 C   0  0  0  0  0  0  0  0  0  0  0  0
    8.7190    0.2890   21.4580 C   0  0  0  0  0  0  0  0  0  0  0  0
    9.0710    1.3790   21.0100 O   0  0  0  0  0  0  0  0  0  0  0  0
    7.6650   -0.4080   20.9750 N   0  0  0  0  0  0  0  0  0  0  0  0
    6.8460    0.0510   19.9070 C   0  0  0  0  0  0  0  0  0  0  0  0
    5.7040    0.8240   20.1990 C   0  0  0  0  0  0  0  0  0  0  0  0
    5.2150    1.0210   21.6110 C   0  0  0  0  0  0  0  0  0  0  0  0
    7.2100   -0.1190   18.5650 C   0  0  0  0  0  0  0  0  0  0  0  0
    6.5410    0.4300   17.5400 N   0  0  0  0  0  0  0  0  0  0  0  0
    5.4710    1.1820   17.8350 C   0  0  0  0  0  0  0  0  0  0  0  0
    5.0270    1.4030   19.1250 C   0  0  0  0  0  0  0  0  0  0  0  0
  2  1  2  0
  3  2  1  0
  4  2  1  0
  5  4  1  0
  5  3  1  0
  5  6  1  1
  7  6  1  0
  8  7  2  0
  9  8  1  0
 10  9  1  0
 11  9  2  0
 12  7  1  0
 13 12  2  0
 13 11  1  0
 14 13  1  0
 15 14  1  0
 16 15  2  0
 17 15  1  0
 18 17  1  0
 19 18  2  0
 20 19  1  0
 21 18  1  0
 22 21  2  0
 23 22  1  0
 24 23  2  0
 24 19  1  0
M  END
