
     RDKit          3D

 17 18  0  0  0  0  0  0  0  0999 V2000
   27.8610   56.4780   -7.5090 O   0  0  0  0  0  0  0  0  0  0  0  0
   27.5830   55.8570   -8.5360 C   0  0  0  0  0  0  0  0  0  0  0  0
   27.0660   56.4990   -9.6700 N   0  0  0  0  0  0  0  0  0  0  0  0
   26.8320   57.8720   -9.8200 C   0  0  0  0  0  0  0  0  0  0  0  0
   27.4180   59.0880   -8.7030 S   0  0  0  0  0  0  0  0  0  0  0  0
   26.7490   60.3440   -9.6610 C   0  0  0  0  0  0  0  0  0  0  0  0
   26.1130   59.8790  -10.7640 C   0  0  0  0  0  0  0  0  0  0  0  0
   26.1370   58.4400  -10.8900 C   0  0  0  0  0  0  0  0  0  0  0  0
   27.7440   54.5020   -8.6830 N   0  0  0  0  0  0  0  0  0  0  0  0
   28.3890   53.6120   -7.8010 C   0  0  1  0  0  0  0  0  0  0  0  0
   28.9610   54.0900   -6.6340 C   0  0  0  0  0  0  0  0  0  0  0  0
   29.4110   53.2070   -5.6800 C   0  0  0  0  0  0  0  0  0  0  0  0
   28.3530   52.2300   -7.9830 C   0  0  0  0  0  0  0  0  0  0  0  0
   28.8130   51.3500   -7.0880 N   0  0  0  0  0  0  0  0  0  0  0  0
   29.3210   51.8480   -5.9680 C   0  0  0  0  0  0  0  0  0  0  0  0
   29.8070   51.0510   -4.9990 O   0  0  0  0  0  0  0  0  0  0  0  0
   29.7910   49.6410   -5.2130 C   0  0  0  0  0  0  0  0  0  0  0  0
  2  1  1  0
  3  2  1  0
  4  3  1  0
  5  4  1  0
  6  5  1  0
  7  6  1  0
  8  7  1  0
  8  4  1  0
  9  2  1  0
 10  9  1  1
 11 10  1  0
 12 11  1  0
 13 10  1  0
 14 13  1  0
 15 14  1  0
 15 12  1  0
 16 15  1  0
 17 16  1  0
M  END
$$$$
