
     RDKit          3D

 18 20  0  0  0  0  0  0  0  0999 V2000
   35.0140   45.9890   -4.8570 C   0  0  0  0  0  0  0  0  0  0  0  0
   34.7940   46.4930   -6.1430 O   0  0  0  0  0  0  0  0  0  0  0  0
   33.4440   46.5890   -6.3820 C   0  0  2  0  0  0  0  0  0  0  0  0
   32.4730   46.6760   -5.3890 C   0  0  0  0  0  0  0  0  0  0  0  0
   31.3070   46.7120   -6.0360 C   0  0  1  0  0  0  0  0  0  0  0  0
   29.9010   46.8850   -5.4990 C   0  0  0  0  0  0  0  0  0  0  0  0
   29.4430   48.1770   -5.9790 N   0  0  0  0  0  0  0  0  0  0  0  0
   29.5190   49.3040   -5.3140 C   0  0  0  0  0  0  0  0  0  0  0  0
   29.0400   50.2880   -6.0320 N   0  0  0  0  0  0  0  0  0  0  0  0
   28.6570   49.7420   -7.1960 C   0  0  0  0  0  0  0  0  0  0  0  0
   28.0730   50.2570   -8.3820 C   0  0  0  0  0  0  0  0  0  0  0  0
   27.7730   51.6660   -8.4700 N   0  0  0  0  0  0  0  0  0  0  0  0
   27.8020   49.4360   -9.3300 N   0  0  0  0  0  0  0  0  0  0  0  0
   28.0680   48.1800   -9.2590 C   0  0  0  0  0  0  0  0  0  0  0  0
   28.6320   47.6340   -8.2050 N   0  0  0  0  0  0  0  0  0  0  0  0
   28.9340   48.4350   -7.1720 C   0  0  2  0  0  0  0  0  0  0  0  0
   31.5970   46.6740   -7.2560 O   0  0  0  0  0  0  0  0  0  0  0  0
   32.8490   46.5130   -7.5720 N   0  0  0  0  0  0  0  0  0  0  0  0
  2  1  1  0
  3  2  1  1
  4  3  1  0
  5  4  1  0
  5  6  1  6
  7  6  1  0
  8  7  1  0
  9  8  1  0
 10  9  1  0
 11 10  1  0
 12 11  1  0
 13 11  1  0
 14 13  1  0
 15 14  1  0
 16 15  1  1
 16  7  1  0
 16 10  1  0
 17  5  1  0
 18 17  1  0
 18  3  1  0
M  END
$$$$
