
     RDKit          3D

 15 14  0  0  0  0  0  0  0  0999 V2000
    2.0740   -5.5430   23.0350 N   0  0  0  0  0  0  0  0  0  0  0  0
    2.1270   -7.9230   24.7790 C   0  0  0  0  0  0  0  0  0  0  0  0
    4.5070   -7.7870   24.6400 O   0  0  0  0  0  0  0  0  0  0  0  0
    3.3140   -7.0210   24.5090 C   0  0  1  0  0  0  0  0  0  0  0  0
    5.4350   -5.9050   22.0110 N   0  0  0  0  0  0  0  0  0  0  0  0
    0.8750   -6.9870   21.7820 O   0  0  0  0  0  0  0  0  0  0  0  0
    3.2730   -6.3700   23.1130 C   0  0  2  0  0  0  0  0  0  0  0  0
    4.5720   -4.3850   23.4410 O   0  0  0  0  0  0  0  0  0  0  0  0
    0.9450   -5.9320   22.4150 C   0  0  0  0  0  0  0  0  0  0  0  0
   -0.2240   -4.9990   22.5350 C   0  0  0  0  0  0  0  0  0  0  0  0
    4.5010   -5.4770   22.8810 C   0  0  0  0  0  0  0  0  0  0  0  0
    6.5990   -5.0980   21.6220 C   0  0  0  0  0  0  0  0  0  0  0  0
    6.7400   -4.5960   20.1000 C   0  0  0  0  0  0  0  0  0  0  0  0
    5.7020   -4.8360   19.4850 C   0  0  0  0  0  0  0  0  0  0  0  0
    8.0850   -3.8380   19.0530 S   0  0  0  0  0  0  0  0  0  0  0  0
  4  3  1  0
  4  2  1  6
  7  4  1  0
  7  1  1  1
  9  6  2  0
  9  1  1  0
 10  9  1  0
 11  7  1  0
 11  5  1  0
 11  8  2  0
 12  5  1  0
 13 12  1  0
 14 13  2  0
 13 15  1  0
M  END
