
     RDKit          3D

 23 25  0  0  0  0  0  0  0  0999 V2000
    6.6010    0.4720   17.5540 N   0  0  0  0  0  0  0  0  0  0  0  0
   12.0900    4.6580   22.9430 N   0  0  0  0  0  0  0  0  0  0  0  0
    5.7200    0.5630   20.2230 C   0  0  1  0  0  0  0  0  0  0  0  0
   13.6600    0.3350   22.5470 C   0  0  0  0  0  0  0  0  0  0  0  0
   12.8860    2.4120   23.5430 O   0  0  0  0  0  0  0  0  0  0  0  0
   10.9960   -0.5190   22.5740 C   0  0  2  0  0  0  0  0  0  0  0  0
    4.9970    1.1630   19.1960 C   0  0  0  0  0  0  0  0  0  0  0  0
   11.3530    0.6910   23.1600 C   0  0  0  0  0  0  0  0  0  0  0  0
    8.8100   -0.0730   21.4100 C   0  0  0  0  0  0  0  0  0  0  0  0
    6.9110   -0.1020   19.8700 C   0  0  1  0  0  0  0  0  0  0  0  0
    7.2970   -0.1220   18.5300 C   0  0  0  0  0  0  0  0  0  0  0  0
   12.6440    3.3690   22.4940 C   0  0  2  0  0  0  0  0  0  0  0  0
   13.3110   -0.8860   21.9960 C   0  0  0  0  0  0  0  0  0  0  0  0
   11.9900   -1.3070   22.0100 C   0  0  0  0  0  0  0  0  0  0  0  0
   12.6700    1.1230   23.1130 C   0  0  1  0  0  0  0  0  0  0  0  0
   13.9730    4.0990   22.2760 C   0  0  0  0  0  0  0  0  0  0  0  0
    5.2670    0.6890   21.6540 C   0  0  0  0  0  0  0  0  0  0  0  0
    7.7210   -0.6670   20.8800 N   0  0  0  0  0  0  0  0  0  0  0  0
    9.1890    1.0480   21.0860 O   0  0  0  0  0  0  0  0  0  0  0  0
   13.3760    6.5660   22.4610 O   0  0  0  0  0  0  0  0  0  0  0  0
    9.5370   -0.9020   22.4520 C   0  0  0  0  0  0  0  0  0  0  0  0
    5.4690    1.0970   17.9000 C   0  0  0  0  0  0  0  0  0  0  0  0
   13.1690    5.3590   22.5490 C   0  0  0  0  0  0  0  0  0  0  0  0
  7  3  1  0
  8  6  1  0
 10  3  1  0
 11 10  1  0
 11  1  1  0
 12  5  1  1
 12  2  1  0
 13  4  1  0
 14 13  1  0
 14  6  1  0
 15  8  1  0
 15  5  1  6
 15  4  1  0
 16 12  1  0
  3 17  1  1
 10 18  1  1
 18  9  1  0
 19  9  1  0
 21  9  1  0
  6 21  1  6
 22  7  1  0
 22  1  1  0
 23 16  1  0
 23  2  1  0
 23 20  1  0
M  END
$$$$
