
     RDKit          3D

 19 21  0  0  0  0  0  0  0  0999 V2000
    6.6650   -1.4040   20.1410 N   0  0  0  0  0  0  0  0  0  0  0  0
    8.3380   -3.0350   20.1070 C   0  0  0  0  0  0  0  0  0  0  0  0
    8.4270   -4.1420   20.9890 O   0  0  0  0  0  0  0  0  0  0  0  0
    6.8750   -2.7220   19.8210 C   0  0  0  0  0  0  0  0  0  0  0  0
    6.3780    0.4900   18.0480 N   0  0  0  0  0  0  0  0  0  0  0  0
    6.0290   -3.5000   19.4250 O   0  0  0  0  0  0  0  0  0  0  0  0
    5.3890   -0.7170   19.9710 C   0  0  0  0  0  0  0  0  0  0  0  0
    4.4670    1.3190   18.8900 N   0  0  0  0  0  0  0  0  0  0  0  0
    5.9740    1.6220   17.3230 O   0  0  0  0  0  0  0  0  0  0  0  0
    5.4480    0.3670   18.9460 C   0  0  0  0  0  0  0  0  0  0  0  0
    4.8520    2.0320   17.8900 C   0  0  0  0  0  0  0  0  0  0  0  0
    7.8220   -0.8210   20.6670 C   0  0  0  0  0  0  0  0  0  0  0  0
    8.8270   -1.7750   20.7580 C   0  0  0  0  0  0  0  0  0  0  0  0
   10.0330   -1.4520   21.3620 C   0  0  0  0  0  0  0  0  0  0  0  0
   10.2150   -0.1640   21.8310 C   0  0  0  0  0  0  0  0  0  0  0  0
    9.2370    0.8110   21.7000 C   0  0  0  0  0  0  0  0  0  0  0  0
    8.0250    0.4810   21.1140 C   0  0  0  0  0  0  0  0  0  0  0  0
   11.8410    0.2680   22.7180 Br  0  0  0  0  0  0  0  0  0  0  0  0
    9.1080   -3.2300   18.4230 S   0  0  0  0  0  0  0  0  0  0  0  0
  2  3  1  1
  4  2  1  0
  4  1  1  0
  6  4  2  0
  7  1  1  0
  9  5  1  0
 10  8  1  0
 10  7  1  0
 10  5  2  0
 11  8  2  0
 11  9  1  0
 12  1  1  0
 13 12  2  0
 13  2  1  0
 14 13  1  0
 15 14  2  0
 16 15  1  0
 17 16  2  0
 17 12  1  0
 18 15  1  0
  2 19  1  0
M  END
