
     RDKit          3D

 14 15  0  0  0  0  0  0  0  0999 V2000
   27.0640   56.9370   -7.4430 O   0  0  0  0  0  0  0  0  0  0  0  0
   27.2770   56.1730   -8.3860 C   0  0  0  0  0  0  0  0  0  0  0  0
   26.5310   56.1580   -9.4860 N   0  0  0  0  0  0  0  0  0  0  0  0
   25.9810   57.3640  -10.0780 C   0  0  0  0  0  0  0  0  0  0  0  0
   28.5310   55.3130   -8.4560 C   0  0  0  0  0  0  0  0  0  0  0  0
   28.6540   54.3630   -7.3500 N   0  0  0  0  0  0  0  0  0  0  0  0
   28.8820   54.6470   -6.0350 C   0  0  0  0  0  0  0  0  0  0  0  0
   29.0370   53.5850   -5.2810 N   0  0  0  0  0  0  0  0  0  0  0  0
   28.9040   52.5120   -6.1640 C   0  0  0  0  0  0  0  0  0  0  0  0
   28.6620   52.9810   -7.4560 C   0  0  0  0  0  0  0  0  0  0  0  0
   28.9640   51.1410   -5.9310 C   0  0  0  0  0  0  0  0  0  0  0  0
   28.7740   50.2760   -6.9970 C   0  0  0  0  0  0  0  0  0  0  0  0
   28.5210   50.7620   -8.2740 C   0  0  0  0  0  0  0  0  0  0  0  0
   28.4670   52.1220   -8.5260 C   0  0  0  0  0  0  0  0  0  0  0  0
  2  1  2  0
  3  2  1  0
  4  3  1  0
  5  2  1  0
  6  5  1  0
  7  6  1  0
  8  7  2  0
  9  8  1  0
 10  9  2  0
 10  6  1  0
 11  9  1  0
 12 11  2  0
 13 12  1  0
 14 13  2  0
 14 10  1  0
M  END
