
     RDKit          3D

  9  9  0  0  0  0  0  0  0  0999 V2000
   28.7340   51.7960   -5.9810 C   0  0  0  0  0  0  0  0  0  0  0  0
   28.6010   50.5270   -6.8350 C   0  0  0  0  0  0  0  0  0  0  0  0
   29.0160   49.2770   -6.4420 C   0  0  0  0  0  0  0  0  0  0  0  0
   28.8470   48.2690   -7.2910 N   0  0  0  0  0  0  0  0  0  0  0  0
   28.2970   48.4630   -8.4740 C   0  0  0  0  0  0  0  0  0  0  0  0
   28.0810   47.3040   -9.4310 C   0  0  0  0  0  0  0  0  0  0  0  0
   27.9080   49.6400   -8.8750 N   0  0  0  0  0  0  0  0  0  0  0  0
   28.0350   50.6730   -8.0910 C   0  0  0  0  0  0  0  0  0  0  0  0
   27.5950   51.9670   -8.5210 N   0  0  0  0  0  0  0  0  0  0  0  0
  2  1  1  0
  3  2  2  0
  4  3  1  0
  5  4  2  0
  6  5  1  0
  7  5  1  0
  8  7  2  0
  8  2  1  0
  9  8  1  0
M  END
