
     RDKit          3D

 14 15  0  0  0  0  0  0  0  0999 V2000
    9.3790   -5.3990   26.2650 C   0  0  0  0  0  0  0  0  0  0  0  0
    9.1390   -4.0210   25.6310 C   0  0  0  0  0  0  0  0  0  0  0  0
    8.5720   -2.9460   26.2830 N   0  0  0  0  0  0  0  0  0  0  0  0
    8.4840   -1.7680   25.3910 N   0  0  0  0  0  0  0  0  0  0  0  0
    9.0030   -2.0490   24.1390 C   0  0  0  0  0  0  0  0  0  0  0  0
    9.0710   -1.0440   22.9720 C   0  0  0  0  0  0  0  0  0  0  0  0
   10.1930   -0.4740   22.8530 N   0  0  0  0  0  0  0  0  0  0  0  0
   10.5360    0.3260   23.7890 C   0  0  0  0  0  0  0  0  0  0  0  0
   11.8560    1.2280   23.3660 C   0  0  0  0  0  0  0  0  0  0  0  0
   12.8820    0.4750   22.8950 C   0  0  0  0  0  0  0  0  0  0  0  0
   12.5600   -0.7950   22.1130 C   0  0  2  0  0  0  0  0  0  0  0  0
   11.3330   -1.4500   22.4040 C   0  0  0  0  0  0  0  0  0  0  0  0
    9.5260   -3.6060   24.0880 S   0  0  0  0  0  0  0  0  0  0  0  0
   13.5470   -1.5160   21.5620 F   0  0  0  0  0  0  0  0  0  0  0  0
  2  1  1  0
  3  2  1  0
  4  3  1  0
  5  4  1  0
  6  5  1  0
  7  6  1  0
  8  7  1  0
  9  8  1  0
 10  9  1  0
 11 10  1  0
 12  7  1  0
 12 11  1  0
 13  5  1  0
 13  2  1  0
 11 14  1  1
M  END
$$$$
