
     RDKit          3D

 23 25  0  0  0  0  0  0  0  0999 V2000
   14.1630   -1.5720   21.0790 Cl  0  0  0  0  0  0  0  0  0  0  0  0
   12.8980   -0.9160   22.0760 C   0  0  0  0  0  0  0  0  0  0  0  0
   13.2000    0.0790   22.9840 C   0  0  0  0  0  0  0  0  0  0  0  0
   12.1860    0.5740   23.7870 C   0  0  0  0  0  0  0  0  0  0  0  0
   10.8920    0.0920   23.6590 C   0  0  0  0  0  0  0  0  0  0  0  0
   11.6150   -1.4050   21.9350 C   0  0  0  0  0  0  0  0  0  0  0  0
   10.5890   -0.8820   22.7140 C   0  0  0  0  0  0  0  0  0  0  0  0
    9.1440   -1.2930   22.4550 C   0  0  1  0  0  0  0  0  0  0  0  0
    8.3580   -1.4460   23.7620 C   0  0  0  0  0  0  0  0  0  0  0  0
    8.5440   -0.2780   21.4760 C   0  0  0  0  0  0  0  0  0  0  0  0
    9.1210    0.7730   21.2020 O   0  0  0  0  0  0  0  0  0  0  0  0
    7.3600   -0.6420   20.9150 N   0  0  0  0  0  0  0  0  0  0  0  0
    6.6530    0.0640   19.9130 C   0  0  0  0  0  0  0  0  0  0  0  0
    5.5310    0.8520   20.2210 C   0  0  0  0  0  0  0  0  0  0  0  0
    4.8550    1.4990   19.1960 C   0  0  0  0  0  0  0  0  0  0  0  0
    5.3360    1.3410   17.9090 C   0  0  0  0  0  0  0  0  0  0  0  0
    6.4080    0.6070   17.5910 N   0  0  0  0  0  0  0  0  0  0  0  0
    7.0490   -0.0180   18.5820 C   0  0  0  0  0  0  0  0  0  0  0  0
    5.0680    1.0360   21.5620 N   0  0  0  0  0  0  0  0  0  0  0  0
    3.7350    1.1650   21.8130 N   0  0  0  0  0  0  0  0  0  0  0  0
    3.6760    1.4270   23.1120 C   0  0  0  0  0  0  0  0  0  0  0  0
    4.9370    1.4620   23.7040 C   0  0  0  0  0  0  0  0  0  0  0  0
    5.8110    1.2020   22.6870 C   0  0  0  0  0  0  0  0  0  0  0  0
  2  1  1  0
  3  2  2  0
  4  3  1  0
  5  4  2  0
  6  2  1  0
  7  5  1  0
  7  6  2  0
  8  7  1  0
  8  9  1  1
 10  8  1  0
 11 10  2  0
 12 10  1  0
 13 12  1  0
 14 13  1  0
 15 14  2  0
 16 15  1  0
 17 16  2  0
 18 17  1  0
 18 13  2  0
 19 14  1  0
 20 19  1  0
 21 20  2  0
 22 21  1  0
 23 19  1  0
 23 22  2  0
M  END
