
     RDKit          3D

 13 13  0  0  0  0  0  0  0  0999 V2000
   33.4040   46.4360   -7.9790 O   0  0  0  0  0  0  0  0  0  0  0  0
   32.5550   45.7170   -7.5090 C   0  0  0  0  0  0  0  0  0  0  0  0
   31.3890   45.5160   -8.0940 O   0  0  0  0  0  0  0  0  0  0  0  0
   32.7580   44.9710   -6.1910 C   0  0  2  0  0  0  0  0  0  0  0  0
   31.6010   45.2440   -5.2380 C   0  0  0  0  0  0  0  0  0  0  0  0
   34.0380   45.3050   -5.5670 N   0  0  0  0  0  0  0  0  0  0  0  0
   34.6860   44.4980   -4.7010 C   0  0  0  0  0  0  0  0  0  0  0  0
   34.1670   43.4860   -4.2090 O   0  0  0  0  0  0  0  0  0  0  0  0
   36.1410   44.8910   -4.3720 C   0  0  1  0  0  0  0  0  0  0  0  0
   36.9450   45.5250   -5.5350 C   0  0  0  0  0  0  0  0  0  0  0  0
   37.0460   46.9960   -5.1930 C   0  0  0  0  0  0  0  0  0  0  0  0
   37.0480   47.0730   -3.7300 C   0  0  0  0  0  0  0  0  0  0  0  0
   36.2720   45.8750   -3.1900 C   0  0  0  0  0  0  0  0  0  0  0  0
  2  1  2  0
  3  2  1  0
  4  2  1  0
  4  5  1  1
  6  4  1  0
  7  6  1  0
  8  7  2  0
  9  7  1  6
 10  9  1  0
 11 10  1  0
 12 11  1  0
 13 12  1  0
 13  9  1  0
M  END
