
     RDKit          3D

 15 16  0  0  0  0  0  0  0  0999 V2000
   31.2200   45.5420   -8.0550 O   0  0  0  0  0  0  0  0  0  0  0  0
   32.2550   45.6090   -7.4090 C   0  0  0  0  0  0  0  0  0  0  0  0
   33.3840   45.7070   -7.9650 O   0  0  0  0  0  0  0  0  0  0  0  0
   32.1350   45.3780   -5.9040 C   0  0  0  0  0  0  0  0  0  0  0  0
   33.4200   45.6000   -5.3320 N   0  0  0  0  0  0  0  0  0  0  0  0
   34.2550   44.6560   -4.8020 C   0  0  0  0  0  0  0  0  0  0  0  0
   34.0160   43.5290   -4.6990 O   0  0  0  0  0  0  0  0  0  0  0  0
   35.6050   45.3070   -4.4350 C   0  0  0  0  0  0  0  0  0  0  0  0
   36.6970   44.9000   -3.8680 C   0  0  0  0  0  0  0  0  0  0  0  0
   37.7890   45.7870   -3.6710 C   0  0  0  0  0  0  0  0  0  0  0  0
   37.6970   47.1140   -4.0780 C   0  0  0  0  0  0  0  0  0  0  0  0
   36.4830   47.5970   -4.6110 C   0  0  0  0  0  0  0  0  0  0  0  0
   35.4510   46.6970   -4.8130 C   0  0  0  0  0  0  0  0  0  0  0  0
   34.0360   46.7760   -5.3680 C   0  0  0  0  0  0  0  0  0  0  0  0
   33.5450   47.6910   -5.7870 O   0  0  0  0  0  0  0  0  0  0  0  0
  2  1  1  0
  3  2  2  0
  4  2  1  0
  5  4  1  0
  6  5  1  0
  7  6  2  0
  8  6  1  0
  9  8  2  0
 10  9  1  0
 11 10  2  0
 12 11  1  0
 13 12  2  0
 13  8  1  0
 14 13  1  0
 14  5  1  0
 15 14  2  0
M  END
