
     RDKit          3D

 17 19  0  0  0  0  0  0  0  0999 V2000
    6.8250    0.3970   17.9580 N   0  0  0  0  0  0  0  0  0  0  0  0
    5.4090    0.6270   22.0330 C   0  0  0  0  0  0  0  0  0  0  0  0
    9.6140    1.0720   21.1150 O   0  0  0  0  0  0  0  0  0  0  0  0
    5.8970    0.4970   20.6110 C   0  0  1  0  0  0  0  0  0  0  0  0
    7.9910   -0.5020   21.3420 N   0  0  0  0  0  0  0  0  0  0  0  0
    5.1290    0.9710   19.5530 C   0  0  0  0  0  0  0  0  0  0  0  0
    5.6260    0.9070   18.2650 C   0  0  0  0  0  0  0  0  0  0  0  0
    7.5690   -0.0740   18.9660 C   0  0  0  0  0  0  0  0  0  0  0  0
    7.1570   -0.0450   20.3000 C   0  0  0  0  0  0  0  0  0  0  0  0
    9.1500    0.0890   21.6910 C   0  0  0  0  0  0  0  0  0  0  0  0
    9.8480   -0.5570   22.8560 C   0  0  2  0  0  0  0  0  0  0  0  0
   10.5040    0.4660   23.8040 C   0  0  0  0  0  0  0  0  0  0  0  0
   11.9840    0.5210   23.3860 C   0  0  0  0  0  0  0  0  0  0  0  0
   12.2460   -0.8530   22.7220 C   0  0  2  0  0  0  0  0  0  0  0  0
   13.4440   -1.6420   23.1360 C   0  0  0  0  0  0  0  0  0  0  0  0
   13.3970   -0.9880   21.7810 C   0  0  0  0  0  0  0  0  0  0  0  0
   10.9130   -1.5680   22.4190 C   0  0  0  0  0  0  0  0  0  0  0  0
  4  2  1  1
  6  4  1  0
  7  6  1  0
  7  1  1  0
  8  1  1  0
  9  8  1  0
  9  5  1  0
  9  4  1  0
 10  5  1  0
 10  3  1  0
 11 10  1  6
 12 11  1  0
 13 12  1  0
 14 13  1  1
 15 14  1  0
 16 15  1  0
 16 14  1  0
 17 11  1  0
 17 14  1  0
M  END
$$$$
