
     RDKit          3D

 21 23  0  0  0  0  0  0  0  0999 V2000
    8.9680    0.7460   21.0440 O   0  0  0  0  0  0  0  0  0  0  0  0
    8.4720   -0.3300   21.3560 C   0  0  0  0  0  0  0  0  0  0  0  0
    8.9630   -1.1200   22.5550 C   0  0  0  0  0  0  0  0  0  0  0  0
   10.4170   -0.8450   22.8670 C   0  0  0  0  0  0  0  0  0  0  0  0
   10.7770    0.0460   23.8690 C   0  0  0  0  0  0  0  0  0  0  0  0
   12.1000    0.4200   24.0450 C   0  0  0  0  0  0  0  0  0  0  0  0
   13.0890   -0.1020   23.2250 C   0  0  0  0  0  0  0  0  0  0  0  0
   11.4160   -1.4030   22.0770 C   0  0  0  0  0  0  0  0  0  0  0  0
   12.7280   -1.0190   22.2600 C   0  0  0  0  0  0  0  0  0  0  0  0
   13.9530   -1.6850   21.2140 Cl  0  0  0  0  0  0  0  0  0  0  0  0
    7.4220   -0.8770   20.7060 N   0  0  0  0  0  0  0  0  0  0  0  0
    6.6460   -0.2020   19.7380 C   0  0  0  0  0  0  0  0  0  0  0  0
    5.5700    0.6270   20.0960 C   0  0  0  0  0  0  0  0  0  0  0  0
    5.1010    0.6970   21.5330 C   0  0  0  0  0  0  0  0  0  0  0  0
    4.1510    1.8550   21.8220 C   0  0  0  0  0  0  0  0  0  0  0  0
    3.1450    2.0510   20.7040 C   0  0  0  0  0  0  0  0  0  0  0  0
    3.8550    2.3650   19.4070 C   0  0  0  0  0  0  0  0  0  0  0  0
    4.9340    1.3590   19.0840 C   0  0  0  0  0  0  0  0  0  0  0  0
    5.3800    1.1920   17.7920 C   0  0  0  0  0  0  0  0  0  0  0  0
    6.3930    0.3950   17.4360 N   0  0  0  0  0  0  0  0  0  0  0  0
    7.0130   -0.2890   18.4000 C   0  0  0  0  0  0  0  0  0  0  0  0
  2  1  2  0
  3  2  1  0
  4  3  1  0
  5  4  2  0
  6  5  1  0
  7  6  2  0
  8  4  1  0
  9  8  2  0
  9  7  1  0
 10  9  1  0
 11  2  1  0
 12 11  1  0
 13 12  1  0
 14 13  1  0
 15 14  1  0
 16 15  1  0
 17 16  1  0
 18 17  1  0
 18 13  2  0
 19 18  1  0
 20 19  2  0
 21 20  1  0
 21 12  2  0
M  END
