
     RDKit          3D

 14 15  0  0  0  0  0  0  0  0999 V2000
    9.4450   -5.4560   26.2700 C   0  0  0  0  0  0  0  0  0  0  0  0
    9.2070   -4.0760   25.6400 C   0  0  0  0  0  0  0  0  0  0  0  0
    9.0750   -2.0990   24.1530 C   0  0  0  0  0  0  0  0  0  0  0  0
    9.1440   -1.0920   22.9880 C   0  0  0  0  0  0  0  0  0  0  0  0
   10.6120    0.2730   23.8080 C   0  0  0  0  0  0  0  0  0  0  0  0
   11.9340    1.1730   23.3870 C   0  0  0  0  0  0  0  0  0  0  0  0
   12.9590    0.4200   22.9140 C   0  0  0  0  0  0  0  0  0  0  0  0
   12.6330   -0.8470   22.1290 C   0  0  0  0  0  0  0  0  0  0  0  0
   11.4050   -1.5010   22.4190 C   0  0  0  0  0  0  0  0  0  0  0  0
   13.6190   -1.5690   21.5760 F   0  0  0  0  0  0  0  0  0  0  0  0
    8.6430   -3.0010   26.2950 N   0  0  0  0  0  0  0  0  0  0  0  0
    8.5570   -1.8210   25.4060 N   0  0  0  0  0  0  0  0  0  0  0  0
   10.2680   -0.5240   22.8710 N   0  0  0  0  0  0  0  0  0  0  0  0
    9.5940   -3.6570   24.0980 S   0  0  0  0  0  0  0  0  0  0  0  0
  2  1  1  0
  4  3  1  0
  6  5  1  0
  7  6  1  0
  8  7  2  0
  9  8  1  0
 10  8  1  0
 11  2  2  0
 12 11  1  0
 12  3  2  0
 13  5  1  0
 13  4  1  0
 13  9  1  0
 14  3  1  0
 14  2  1  0
M  END
