
     RDKit          3D

 18 20  0  0  0  0  0  0  0  0999 V2000
   22.1230   18.2850    4.0530 C   0  0  0  0  0  0  0  0  0  0  0  0
   21.2570   19.3620    3.9210 C   0  0  0  0  0  0  0  0  0  0  0  0
   20.5910   19.8420    5.0380 C   0  0  0  0  0  0  0  0  0  0  0  0
   20.7700   19.2450    6.2810 C   0  0  0  0  0  0  0  0  0  0  0  0
   21.6330   18.1630    6.4120 C   0  0  0  0  0  0  0  0  0  0  0  0
   22.3030   17.6860    5.2910 C   0  0  0  0  0  0  0  0  0  0  0  0
   23.2620   16.5110    5.3890 C   0  0  0  0  0  0  0  0  0  0  0  0
   23.7420   14.3090    4.3150 C   0  0  0  0  0  0  0  0  0  0  0  0
   25.4760   12.9870    4.5310 C   0  0  0  0  0  0  0  0  0  0  0  0
   26.6920   12.3220    4.8820 C   0  0  0  0  0  0  0  0  0  0  0  0
   27.0460   11.1400    4.2350 C   0  0  0  0  0  0  0  0  0  0  0  0
   26.2200   10.6090    3.2400 C   0  0  0  0  0  0  0  0  0  0  0  0
   25.0390   11.2610    2.8980 C   0  0  0  0  0  0  0  0  0  0  0  0
   24.6690   12.4660    3.5640 C   0  0  0  0  0  0  0  0  0  0  0  0
   22.8370   15.4250    4.5260 N   0  0  0  0  0  0  0  0  0  0  0  0
   24.8800   14.1270    4.9810 N   0  0  0  0  0  0  0  0  0  0  0  0
   23.6040   13.3020    3.4520 N   0  0  0  0  0  0  0  0  0  0  0  0
   22.8100   17.7850    2.9420 O   0  0  0  0  0  0  0  0  0  0  0  0
  2  1  2  0
  3  2  1  0
  4  3  2  0
  5  4  1  0
  6  5  2  0
  6  1  1  0
  7  6  1  0
 10  9  2  0
 11 10  1  0
 12 11  2  0
 13 12  1  0
 14 13  2  0
 14  9  1  0
 15  8  1  0
 15  7  1  0
 16  9  1  0
 16  8  2  0
 17 14  1  0
 17  8  1  0
 18  1  1  0
M  END
