
     RDKit          3D

 13 13  0  0  0  0  0  0  0  0999 V2000
    0.8580    6.9820   -4.7540 N   0  0  0  0  0  0  0  0  0  0  0  0
    2.4780   11.7240   -6.4350 N   0  0  0  0  0  0  0  0  0  0  0  0
    3.2670    4.7950   -3.0590 O   0  0  0  0  0  0  0  0  0  0  0  0
    0.4360   11.6420   -5.3650 O   0  0  0  0  0  0  0  0  0  0  0  0
    1.7260    7.7240   -3.9210 C   0  0  2  0  0  0  0  0  0  0  0  0
    1.3950    7.3650   -2.4720 C   0  0  0  0  0  0  0  0  0  0  0  0
    2.1740    6.5360   -1.8110 C   0  0  0  0  0  0  0  0  0  0  0  0
    3.3990    5.8900   -2.4640 C   0  0  0  0  0  0  0  0  0  0  0  0
    1.3760    9.1930   -4.1230 C   0  0  0  0  0  0  0  0  0  0  0  0
    1.7640    9.6740   -5.5120 C   0  0  2  0  0  0  0  0  0  0  0  0
    3.2350    9.5600   -5.7280 C   0  0  0  0  0  0  0  0  0  0  0  0
    3.5250   10.7140   -6.6980 C   0  0  0  0  0  0  0  0  0  0  0  0
    1.4190   11.1200   -5.7220 C   0  0  0  0  0  0  0  0  0  0  0  0
  5  1  1  6
  6  5  1  0
  7  6  1  0
  8  3  1  0
  8  7  1  0
  9  5  1  0
 10  9  1  1
 11 10  1  0
 12 11  1  0
 12  2  1  0
 13 10  1  0
 13  2  1  0
 13  4  1  0
M  END
$$$$
