
     RDKit          3D

  7  6  0  0  0  0  0  0  0  0999 V2000
   33.3500   45.9600   -7.7040 O   0  0  0  0  0  0  0  0  0  0  0  0
   32.3010   45.4380   -7.5180 C   0  0  0  0  0  0  0  0  0  0  0  0
   31.2740   45.5180   -8.1850 O   0  0  0  0  0  0  0  0  0  0  0  0
   32.2790   44.4220   -6.3290 C   0  0  1  0  0  0  0  0  0  0  0  0
   32.1300   43.2230   -6.7520 F   0  0  0  0  0  0  0  0  0  0  0  0
   33.3110   44.4050   -5.6370 F   0  0  0  0  0  0  0  0  0  0  0  0
   31.3610   44.6360   -5.5240 F   0  0  0  0  0  0  0  0  0  0  0  0
  2  1  1  0
  3  2  2  0
  4  2  1  0
  4  5  1  6
  6  4  1  0
  7  4  1  0
M  CHG  1   1  -1
M  END
