
     RDKit          3D

 29 30  0  0  0  0  0  0  0  0999 V2000
   11.9350    5.0950   23.8390 C   0  0  0  0  0  0  0  0  0  0  0  0
   12.6690    5.7720   22.8480 C   0  0  0  0  0  0  0  0  0  0  0  0
   13.1690    7.0780   23.0610 C   0  0  0  0  0  0  0  0  0  0  0  0
   12.9680    7.7600   24.2830 C   0  0  0  0  0  0  0  0  0  0  0  0
   12.2690    7.1050   25.2930 C   0  0  0  0  0  0  0  0  0  0  0  0
   11.7590    5.8000   25.0740 C   0  0  0  0  0  0  0  0  0  0  0  0
   11.3610    3.6590   23.6370 C   0  0  0  0  0  0  0  0  0  0  0  0
    9.8760    3.4150   23.1650 O   0  0  0  0  0  0  0  0  0  0  0  0
    9.6610    2.1400   22.5610 C   0  0  1  0  0  0  0  0  0  0  0  0
    9.2320    2.0730   21.4420 O   0  0  0  0  0  0  0  0  0  0  0  0
   10.0290    0.9760   23.2030 N   0  0  0  0  0  0  0  0  0  0  0  0
   10.2320   -0.2740   22.4070 C   0  0  1  0  0  0  0  0  0  0  0  0
   10.9060   -1.2990   23.3310 C   0  0  0  0  0  0  0  0  0  0  0  0
   12.3820   -1.1210   23.6260 C   0  0  1  0  0  0  0  0  0  0  0  0
   12.9540   -2.3630   24.4090 C   0  0  0  0  0  0  0  0  0  0  0  0
   13.1830   -0.8880   22.3500 C   0  0  0  0  0  0  0  0  0  0  0  0
    8.8140   -0.9150   21.9240 C   0  0  2  0  0  0  0  0  0  0  0  0
    7.8680   -0.7420   22.6350 O   0  0  0  0  0  0  0  0  0  0  0  0
    8.6260   -1.7270   20.7600 N   0  0  0  0  0  0  0  0  0  0  0  0
    7.3840   -2.2630   20.4150 C   0  0  2  0  0  0  0  0  0  0  0  0
    7.5240   -3.6240   19.8100 C   0  0  0  0  0  0  0  0  0  0  0  0
    6.2820   -4.2810   19.5950 O   0  0  0  0  0  0  0  0  0  0  0  0
    6.5360   -1.3310   19.3360 C   0  0  0  0  0  0  0  0  0  0  0  0
    6.6080    0.2140   19.5720 C   0  0  2  0  0  0  0  0  0  0  0  0
    5.7440    0.7140   20.7570 C   0  0  0  0  0  0  0  0  0  0  0  0
    4.4450    1.3100   20.1460 C   0  0  0  0  0  0  0  0  0  0  0  0
    4.7850    1.5460   18.7420 N   0  0  0  0  0  0  0  0  0  0  0  0
    6.0040    0.9500   18.3480 C   0  0  0  0  0  0  0  0  0  0  0  0
    6.4890    1.0080   17.2410 O   0  0  0  0  0  0  0  0  0  0  0  0
  2  1  1  0
  3  2  1  0
  4  3  1  0
  5  4  1  0
  6  1  1  0
  6  5  1  0
  7  1  1  0
  8  7  1  0
  9  8  1  0
  9 10  1  6
 11  9  1  0
 12 11  1  0
 12 13  1  1
 14 13  1  0
 14 15  1  6
 16 14  1  0
 17 12  1  0
 17 18  1  1
 19 17  1  0
 20 19  1  0
 20 21  1  6
 22 21  1  0
 23 20  1  0
 24 23  1  6
 25 24  1  0
 26 25  1  0
 27 26  1  0
 28 27  1  0
 28 24  1  0
 29 28  1  0
M  END
$$$$
