
     RDKit          3D

  9  9  0  0  0  0  0  0  0  0999 V2000
   28.1250   50.5890   -8.4730 N   0  0  0  0  0  0  0  0  0  0  0  0
   28.6700   50.7510   -7.1680 C   0  0  0  0  0  0  0  0  0  0  0  0
   29.0360   49.8580   -6.5350 O   0  0  0  0  0  0  0  0  0  0  0  0
   28.8680   52.1790   -6.6580 C   0  0  0  0  0  0  0  0  0  0  0  0
   28.6090   53.1830   -7.5100 C   0  0  0  0  0  0  0  0  0  0  0  0
   28.8300   54.4800   -7.1820 C   0  0  0  0  0  0  0  0  0  0  0  0
   29.3210   54.6700   -5.9120 C   0  0  0  0  0  0  0  0  0  0  0  0
   29.5700   53.7020   -5.1170 N   0  0  0  0  0  0  0  0  0  0  0  0
   29.3860   52.4400   -5.4450 C   0  0  0  0  0  0  0  0  0  0  0  0
  2  1  1  0
  3  2  2  0
  4  2  1  0
  5  4  2  0
  6  5  1  0
  7  6  2  0
  8  7  1  0
  9  4  1  0
  9  8  2  0
M  END
