
     RDKit          3D

 19 20  0  0  0  0  0  0  0  0999 V2000
    7.4330   -2.4770   18.2920 C   0  0  0  0  0  0  0  0  0  0  0  0
    7.8380   -1.0800   18.7390 C   0  0  0  0  0  0  0  0  0  0  0  0
    6.7220   -0.0710   18.4680 C   0  0  0  0  0  0  0  0  0  0  0  0
    5.6980    0.1870   19.4450 N   0  0  0  0  0  0  0  0  0  0  0  0
    5.6350   -0.4060   20.7450 C   0  0  0  0  0  0  0  0  0  0  0  0
    5.7590    0.6800   21.8260 C   0  0  0  0  0  0  0  0  0  0  0  0
    4.9690    1.8180   21.5560 N   0  0  0  0  0  0  0  0  0  0  0  0
    4.9580    2.6990   22.4590 C   0  0  0  0  0  0  0  0  0  0  0  0
    6.2470    3.5130   22.6730 C   0  0  0  0  0  0  0  0  0  0  0  0
    7.2080    3.1180   23.6040 C   0  0  0  0  0  0  0  0  0  0  0  0
    8.3400    3.8900   23.8250 C   0  0  0  0  0  0  0  0  0  0  0  0
    6.3990    4.7340   22.0340 C   0  0  0  0  0  0  0  0  0  0  0  0
    7.5290    5.5040   22.2630 C   0  0  0  0  0  0  0  0  0  0  0  0
    8.4720    5.1120   23.1890 C   0  0  0  0  0  0  0  0  0  0  0  0
    4.7880    2.2940   20.2400 C   0  0  0  0  0  0  0  0  0  0  0  0
    4.6700    1.1540   19.2200 C   0  0  0  0  0  0  0  0  0  0  0  0
    6.6730    0.5180   17.4490 O   0  0  0  0  0  0  0  0  0  0  0  0
    9.5640    5.9040   23.3890 F   0  0  0  0  0  0  0  0  0  0  0  0
    8.7880   -3.4970   18.6180 S   0  0  0  0  0  0  0  0  0  0  0  0
  2  1  1  0
  3  2  1  0
  4  3  1  0
  5  4  1  0
  6  5  1  0
  7  6  1  0
  8  7  1  0
  9  8  1  0
 10  9  2  0
 11 10  1  0
 12  9  1  0
 13 12  2  0
 14 11  2  0
 14 13  1  0
 15  7  1  0
 16 15  1  0
 16  4  1  0
 17  3  2  0
 18 14  1  0
  1 19  1  0
M  END
