
     RDKit          3D

 24 27  0  0  0  0  0  0  0  0999 V2000
   10.2700    0.5080   24.8820 O   0  0  0  0  0  0  0  0  0  0  0  0
    3.9950    1.5040   21.6600 C   0  0  0  0  0  0  0  0  0  0  0  0
    3.3630    2.1450   20.6150 C   0  0  0  0  0  0  0  0  0  0  0  0
    3.8170    2.0100   19.3360 C   0  0  0  0  0  0  0  0  0  0  0  0
    4.9610    1.2230   19.0590 C   0  0  0  0  0  0  0  0  0  0  0  0
    9.1570    0.8000   21.1200 O   0  0  0  0  0  0  0  0  0  0  0  0
   11.5060   -1.3270   21.9590 C   0  0  0  0  0  0  0  0  0  0  0  0
    5.5050    1.0740   17.7620 C   0  0  0  0  0  0  0  0  0  0  0  0
    7.2120   -0.2340   18.5110 C   0  0  0  0  0  0  0  0  0  0  0  0
    6.7940   -0.1770   19.8360 C   0  0  0  0  0  0  0  0  0  0  0  0
   10.5880   -0.7930   22.8570 C   0  0  0  0  0  0  0  0  0  0  0  0
    8.6030   -0.2280   21.5010 C   0  0  0  0  0  0  0  0  0  0  0  0
   13.9780   -1.7460   20.9810 Cl  0  0  0  0  0  0  0  0  0  0  0  0
    7.5090   -0.7320   20.9110 N   0  0  0  0  0  0  0  0  0  0  0  0
    5.0930    0.7260   21.4340 C   0  0  0  0  0  0  0  0  0  0  0  0
   12.8360   -0.9770   22.0440 C   0  0  0  0  0  0  0  0  0  0  0  0
   13.2880   -0.0780   22.9820 C   0  0  0  0  0  0  0  0  0  0  0  0
   12.3960    0.4380   23.9060 C   0  0  0  0  0  0  0  0  0  0  0  0
   11.0640    0.0580   23.8560 C   0  0  0  0  0  0  0  0  0  0  0  0
    8.8690    0.6350   24.5580 C   0  0  0  0  0  0  0  0  0  0  0  0
    8.3110   -0.6360   23.9710 C   0  0  0  0  0  0  0  0  0  0  0  0
    9.0990   -1.0300   22.7050 C   0  0  2  0  0  0  0  0  0  0  0  0
    6.5970    0.3740   17.4910 N   0  0  0  0  0  0  0  0  0  0  0  0
    5.6190    0.5700   20.1290 C   0  0  0  0  0  0  0  0  0  0  0  0
  3  2  2  0
  4  3  1  0
  5  4  2  0
  8  5  1  0
 10  9  2  0
 11  7  2  0
 12  6  2  0
 14 12  1  0
 14 10  1  0
 15  2  1  0
 16 13  1  0
 16  7  1  0
 17 16  2  0
 18 17  1  0
 19 11  1  0
 19  1  1  0
 19 18  2  0
 20  1  1  0
 21 20  1  0
 22 12  1  6
 22 21  1  0
 22 11  1  0
 23  9  1  0
 23  8  2  0
 24 15  2  0
 24  5  1  0
 24 10  1  0
M  END
