
     RDKit          3D

 22 24  0  0  0  0  0  0  0  0999 V2000
    7.2750   -0.8980   20.6340 N   0  0  0  0  0  0  0  0  0  0  0  0
    8.2910   -0.4590   21.4060 C   0  0  0  0  0  0  0  0  0  0  0  0
    8.8490    0.6240   21.2510 O   0  0  0  0  0  0  0  0  0  0  0  0
    8.6880   -1.3910   22.5300 C   0  0  0  0  0  0  0  0  0  0  0  0
    6.2800    0.4850   17.3320 N   0  0  0  0  0  0  0  0  0  0  0  0
   10.1150   -1.1160   22.9230 C   0  0  0  0  0  0  0  0  0  0  0  0
   10.3380   -0.3960   24.1060 C   0  0  0  0  0  0  0  0  0  0  0  0
   11.5980    0.1290   24.3800 C   0  0  0  0  0  0  0  0  0  0  0  0
   12.6340   -0.0650   23.5050 C   0  0  0  0  0  0  0  0  0  0  0  0
   12.4470   -0.8530   22.3170 C   0  0  0  0  0  0  0  0  0  0  0  0
   13.4440   -1.0970   21.4220 C   0  0  0  0  0  0  0  0  0  0  0  0
   14.2980   -1.3180   20.6300 C   0  0  0  0  0  0  0  0  0  0  0  0
   11.1470   -1.3720   22.0830 C   0  0  0  0  0  0  0  0  0  0  0  0
    6.5740   -0.1920   19.6390 C   0  0  0  0  0  0  0  0  0  0  0  0
    6.9290   -0.1830   18.2940 C   0  0  0  0  0  0  0  0  0  0  0  0
    5.2240    1.1980   17.6870 C   0  0  0  0  0  0  0  0  0  0  0  0
    4.7440    1.3010   19.0140 C   0  0  0  0  0  0  0  0  0  0  0  0
    3.6340    2.1010   19.3770 C   0  0  0  0  0  0  0  0  0  0  0  0
    3.2310    2.1790   20.6780 C   0  0  0  0  0  0  0  0  0  0  0  0
    3.9000    1.4760   21.6670 C   0  0  0  0  0  0  0  0  0  0  0  0
    4.9760    0.6920   21.3600 C   0  0  0  0  0  0  0  0  0  0  0  0
    5.4370    0.5810   20.0250 C   0  0  0  0  0  0  0  0  0  0  0  0
  2  1  1  0
  3  2  2  0
  4  2  1  0
  6  4  1  0
  7  6  2  0
  8  7  1  0
  9  8  2  0
 10  9  1  0
 11 10  1  0
 12 11  3  0
 13  6  1  0
 13 10  2  0
 14  1  1  0
 15 14  1  0
 15  5  2  0
 16  5  1  0
 17 16  2  0
 18 17  1  0
 19 18  2  0
 20 19  1  0
 21 20  2  0
 22 21  1  0
 22 17  1  0
 22 14  2  0
M  END
