
     RDKit          3D

 14 14  0  0  0  0  0  0  0  0999 V2000
   30.4770   44.8370   -6.3630 O   0  0  0  0  0  0  0  0  0  0  0  0
   30.3790   46.0180   -6.6680 C   0  0  0  0  0  0  0  0  0  0  0  0
   30.3640   46.3130   -7.8220 O   0  0  0  0  0  0  0  0  0  0  0  0
   30.2270   47.1190   -5.5660 C   0  0  0  0  0  0  0  0  0  0  0  0
   29.7780   48.3040   -6.1420 N   0  0  0  0  0  0  0  0  0  0  0  0
   29.4990   49.4250   -5.3390 C   0  0  0  0  0  0  0  0  0  0  0  0
   29.6720   49.4040   -4.2350 O   0  0  0  0  0  0  0  0  0  0  0  0
   29.0580   50.6620   -6.0790 C   0  0  0  0  0  0  0  0  0  0  0  0
   28.5120   50.5340   -7.3080 C   0  0  0  0  0  0  0  0  0  0  0  0
   28.1270   51.6700   -8.0290 C   0  0  0  0  0  0  0  0  0  0  0  0
   28.3130   52.9360   -7.4430 C   0  0  0  0  0  0  0  0  0  0  0  0
   28.8770   53.0290   -6.1920 C   0  0  0  0  0  0  0  0  0  0  0  0
   29.1270   54.1930   -5.6030 O   0  0  0  0  0  0  0  0  0  0  0  0
   29.2610   51.9220   -5.4850 C   0  0  0  0  0  0  0  0  0  0  0  0
  2  1  1  0
  3  2  2  0
  4  2  1  0
  5  4  1  0
  6  5  1  0
  7  6  2  0
  8  6  1  0
  9  8  2  0
 10  9  1  0
 11 10  2  0
 12 11  1  0
 13 12  1  0
 14 12  2  0
 14  8  1  0
M  END
