
     RDKit          3D

 22 25  0  0  0  0  0  0  0  0999 V2000
    9.2590    1.1520   21.0910 O   0  0  0  0  0  0  0  0  0  0  0  0
    8.7600    0.0990   21.4640 C   0  0  0  0  0  0  0  0  0  0  0  0
    7.7460   -0.5090   20.7660 N   0  0  0  0  0  0  0  0  0  0  0  0
    7.2290   -0.0480   19.5730 C   0  0  0  0  0  0  0  0  0  0  0  0
    5.9740    0.4880   19.4720 N   0  0  0  0  0  0  0  0  0  0  0  0
    4.9930    0.7020   20.5530 C   0  0  1  0  0  0  0  0  0  0  0  0
    5.1320    1.9170   21.4000 C   0  0  0  0  0  0  0  0  0  0  0  0
    4.0210    1.8180   20.4060 C   0  0  0  0  0  0  0  0  0  0  0  0
    5.8570    0.8390   18.1600 C   0  0  0  0  0  0  0  0  0  0  0  0
    6.9430    0.5620   17.5030 N   0  0  0  0  0  0  0  0  0  0  0  0
    7.8280   -0.0130   18.3970 N   0  0  0  0  0  0  0  0  0  0  0  0
    9.2120   -0.5780   22.7770 C   0  0  1  0  0  0  0  0  0  0  0  0
    8.9430   -2.0920   22.8910 C   0  0  0  0  0  0  0  0  0  0  0  0
   10.7290   -0.3950   22.8030 C   0  0  0  0  0  0  0  0  0  0  0  0
   11.5330   -1.0030   21.8490 C   0  0  0  0  0  0  0  0  0  0  0  0
   12.8940   -0.7490   21.8040 C   0  0  0  0  0  0  0  0  0  0  0  0
   13.4710    0.1130   22.7100 C   0  0  0  0  0  0  0  0  0  0  0  0
   12.6980    0.7200   23.6890 C   0  0  0  0  0  0  0  0  0  0  0  0
   11.3390    0.4460   23.7350 C   0  0  0  0  0  0  0  0  0  0  0  0
   10.6470    1.0130   24.7740 O   0  0  0  0  0  0  0  0  0  0  0  0
    9.2940    1.3610   24.4260 C   0  0  0  0  0  0  0  0  0  0  0  0
    8.5140    0.1520   23.9530 C   0  0  0  0  0  0  0  0  0  0  0  0
  2  1  2  0
  3  2  1  0
  4  3  1  0
  5  4  1  0
  6  5  1  6
  7  6  1  0
  8  7  1  0
  8  6  1  0
  9  5  1  0
 10  9  2  0
 11 10  1  0
 11  4  2  0
 12  2  1  0
 12 13  1  6
 14 12  1  0
 15 14  2  0
 16 15  1  0
 17 16  2  0
 18 17  1  0
 19 14  1  0
 19 18  2  0
 20 19  1  0
 21 20  1  0
 22 21  1  0
 22 12  1  0
M  END
