
     RDKit          3D

 28 31  0  0  0  0  0  0  0  0999 V2000
    9.0790   -4.6500   25.6240 N   0  0  0  0  0  0  0  0  0  0  0  0
    9.4510   -5.8770   24.9460 C   0  0  0  0  0  0  0  0  0  0  0  0
    9.0430    1.4620   20.9670 O   0  0  0  0  0  0  0  0  0  0  0  0
    8.1520   -4.8730   26.7240 C   0  0  0  0  0  0  0  0  0  0  0  0
    9.2190    0.2240   22.8570 N   0  0  0  0  0  0  0  0  0  0  0  0
    9.0910   -3.4540   24.9450 C   0  0  0  0  0  0  0  0  0  0  0  0
    7.1180   -0.1440   19.8790 N   0  0  0  0  0  0  0  0  0  0  0  0
    8.7660   -2.2560   25.5890 C   0  0  0  0  0  0  0  0  0  0  0  0
    7.4610   -0.2470   18.5700 N   0  0  0  0  0  0  0  0  0  0  0  0
    8.8370   -1.0500   24.9140 C   0  0  0  0  0  0  0  0  0  0  0  0
    6.5840    0.3900   17.8520 N   0  0  0  0  0  0  0  0  0  0  0  0
    9.1070   -1.0170   23.5510 C   0  0  2  0  0  0  0  0  0  0  0  0
    9.5090   -2.1880   22.9240 C   0  0  0  0  0  0  0  0  0  0  0  0
    9.4680   -3.3950   23.5980 C   0  0  0  0  0  0  0  0  0  0  0  0
    9.6310    1.4040   23.6090 C   0  0  0  0  0  0  0  0  0  0  0  0
   11.0990    1.7020   23.4450 C   0  0  1  0  0  0  0  0  0  0  0  0
   12.0560    0.7490   23.6400 C   0  0  0  0  0  0  0  0  0  0  0  0
   13.0390    2.8890   22.8980 C   0  0  0  0  0  0  0  0  0  0  0  0
   11.6670    2.9390   23.0210 C   0  0  0  0  0  0  0  0  0  0  0  0
    8.8200    0.4210   21.5640 C   0  0  1  0  0  0  0  0  0  0  0  0
    7.9850   -0.6820   20.9070 C   0  0  0  0  0  0  0  0  0  0  0  0
    5.6350    0.9150   18.6980 C   0  0  0  0  0  0  0  0  0  0  0  0
    5.9670    0.5720   20.0050 C   0  0  0  0  0  0  0  0  0  0  0  0
    5.1970    0.9640   21.0890 C   0  0  0  0  0  0  0  0  0  0  0  0
    4.0600    1.7160   20.8290 C   0  0  0  0  0  0  0  0  0  0  0  0
    3.7180    2.0720   19.5260 C   0  0  0  0  0  0  0  0  0  0  0  0
    4.5010    1.6810   18.4490 C   0  0  0  0  0  0  0  0  0  0  0  0
   13.6290    1.3280   23.3130 S   0  0  0  0  0  0  0  0  0  0  0  0
  2  1  1  0
  4  1  1  0
  6  1  1  0
  8  6  1  0
  9  7  1  0
 10  8  1  0
 11  9  1  0
 12 10  1  0
 12  5  1  1
 13 12  1  0
 14 13  1  0
 14  6  1  0
 15  5  1  0
 16 15  1  6
 17 16  1  0
 19 18  1  0
 19 16  1  0
 20  3  1  1
 20  5  1  0
 21 20  1  0
 21  7  1  0
 22 11  1  0
 23 22  1  0
 23  7  1  0
 24 23  1  0
 25 24  1  0
 26 25  1  0
 27 26  1  0
 27 22  1  0
 28 18  1  0
 28 17  1  0
M  END
$$$$
