
     RDKit          3D

 15 16  0  0  0  0  0  0  0  0999 V2000
   11.0290  -25.7990    3.3720 C   0  0  0  0  0  0  0  0  0  0  0  0
   12.1620  -25.0090    3.4560 C   0  0  0  0  0  0  0  0  0  0  0  0
   12.4500  -24.0900    2.4510 C   0  0  0  0  0  0  0  0  0  0  0  0
   11.5990  -23.9560    1.3760 C   0  0  0  0  0  0  0  0  0  0  0  0
   10.4540  -24.7500    1.3000 C   0  0  0  0  0  0  0  0  0  0  0  0
    9.4820  -24.6370    0.0830 C   0  0  0  0  0  0  0  0  0  0  0  0
    8.0850  -23.2610   -1.2140 C   0  0  0  0  0  0  0  0  0  0  0  0
    7.2660  -21.9630   -1.2520 C   0  0  0  0  0  0  0  0  0  0  0  0
    7.6170  -20.7710   -1.8820 C   0  0  0  0  0  0  0  0  0  0  0  0
    6.5870  -19.8680   -1.6630 C   0  0  0  0  0  0  0  0  0  0  0  0
    5.5980  -20.5420   -0.8890 C   0  0  0  0  0  0  0  0  0  0  0  0
   10.1730  -25.6710    2.2950 C   0  0  0  0  0  0  0  0  0  0  0  0
   10.7330  -26.6950    4.3360 F   0  0  0  0  0  0  0  0  0  0  0  0
    9.0080  -23.2560   -0.1450 N   0  0  0  0  0  0  0  0  0  0  0  0
    6.0330  -21.7780   -0.6740 O   0  0  0  0  0  0  0  0  0  0  0  0
  2  1  2  0
  3  2  1  0
  4  3  2  0
  5  4  1  0
  6  5  1  0
  8  7  1  0
  9  8  2  0
 10  9  1  0
 11 10  2  0
 12  5  2  0
 12  1  1  0
 13  1  1  0
 14  7  1  0
 14  6  1  0
 15  8  1  0
 15 11  1  0
M  END
