
     RDKit          3D

 16 16  0  0  0  0  0  0  0  0999 V2000
    7.9960   -0.5460   21.0650 N   0  0  0  0  0  0  0  0  0  0  0  0
   12.5240    0.1180   23.5050 C   0  0  0  0  0  0  0  0  0  0  0  0
    9.6320    1.0220   21.0560 O   0  0  0  0  0  0  0  0  0  0  0  0
   12.1730   -0.7420   22.3020 C   0  0  1  0  0  0  0  0  0  0  0  0
    6.7250    0.3870   17.7180 N   0  0  0  0  0  0  0  0  0  0  0  0
   13.3600   -1.6040   21.9040 C   0  0  0  0  0  0  0  0  0  0  0  0
   10.8560   -1.5520   22.5090 C   0  0  1  0  0  0  0  0  0  0  0  0
   10.9660   -2.5970   23.6150 C   0  0  0  0  0  0  0  0  0  0  0  0
    9.6700   -0.6210   22.7910 C   0  0  0  0  0  0  0  0  0  0  0  0
    9.1150    0.0280   21.5460 C   0  0  0  0  0  0  0  0  0  0  0  0
    7.1620   -0.0030   20.0550 C   0  0  0  0  0  0  0  0  0  0  0  0
    7.5020   -0.0810   18.7020 C   0  0  0  0  0  0  0  0  0  0  0  0
    5.5600    0.9440   18.0670 C   0  0  0  0  0  0  0  0  0  0  0  0
    5.1310    1.0720   19.3730 C   0  0  0  0  0  0  0  0  0  0  0  0
    5.9400    0.6170   20.4080 C   0  0  2  0  0  0  0  0  0  0  0  0
    5.5430    0.8440   21.8440 C   0  0  0  0  0  0  0  0  0  0  0  0
  4  2  1  1
  6  4  1  0
  7  4  1  0
  7  8  1  1
  9  7  1  0
 10  3  1  0
 10  1  1  0
 10  9  1  0
 11  1  1  0
 12 11  1  0
 12  5  1  0
 13  5  1  0
 14 13  1  0
 15 14  1  0
 15 11  1  0
 15 16  1  1
M  END
$$$$
