
     RDKit          3D

 10 11  0  0  0  0  0  0  0  0999 V2000
   37.3830   48.0720   -6.0100 O   0  0  0  0  0  0  0  0  0  0  0  0
   37.3670   47.0990   -5.3670 C   0  0  0  0  0  0  0  0  0  0  0  0
   36.8620   46.9270   -3.9900 C   0  0  0  0  0  0  0  0  0  0  0  0
   37.0990   45.4850   -3.6180 C   0  0  0  0  0  0  0  0  0  0  0  0
   36.8380   44.7610   -2.4670 C   0  0  0  0  0  0  0  0  0  0  0  0
   37.1680   43.4030   -2.4290 C   0  0  0  0  0  0  0  0  0  0  0  0
   37.7640   42.7560   -3.5360 C   0  0  0  0  0  0  0  0  0  0  0  0
   38.0180   43.4870   -4.6790 C   0  0  0  0  0  0  0  0  0  0  0  0
   37.7010   44.8410   -4.7220 C   0  0  0  0  0  0  0  0  0  0  0  0
   37.8660   45.8460   -5.8380 N   0  0  0  0  0  0  0  0  0  0  0  0
  2  1  2  0
  3  2  1  0
  4  3  1  0
  5  4  2  0
  6  5  1  0
  7  6  2  0
  8  7  1  0
  9  8  2  0
  9  4  1  0
 10  9  1  0
 10  2  1  0
M  END
