
     RDKit          3D

 15 16  0  0  0  0  0  0  0  0999 V2000
    6.5330   48.7580  -18.4570 O   0  0  0  0  0  0  0  0  0  0  0  0
    7.2260   47.7380  -18.6990 C   0  0  0  0  0  0  0  0  0  0  0  0
    6.6810   46.6520  -19.0200 O   0  0  0  0  0  0  0  0  0  0  0  0
    8.7470   47.8200  -18.5740 C   0  0  0  0  0  0  0  0  0  0  0  0
    9.5190   46.6720  -18.6550 C   0  0  0  0  0  0  0  0  0  0  0  0
   10.8340   46.7210  -18.5450 N   0  0  0  0  0  0  0  0  0  0  0  0
   11.4570   47.8730  -18.3470 C   0  0  0  0  0  0  0  0  0  0  0  0
   10.7560   49.0680  -18.2550 C   0  0  0  0  0  0  0  0  0  0  0  0
    9.3680   49.0480  -18.3720 C   0  0  0  0  0  0  0  0  0  0  0  0
   11.5060   50.3820  -18.0260 C   0  0  0  0  0  0  0  0  0  0  0  0
   12.5850   50.4080  -17.1650 C   0  0  0  0  0  0  0  0  0  0  0  0
   13.2600   51.6050  -16.9450 C   0  0  0  0  0  0  0  0  0  0  0  0
   12.8600   52.7650  -17.5920 C   0  0  0  0  0  0  0  0  0  0  0  0
   11.7850   52.7340  -18.4630 C   0  0  0  0  0  0  0  0  0  0  0  0
   11.1070   51.5440  -18.6750 C   0  0  0  0  0  0  0  0  0  0  0  0
  2  1  1  0
  3  2  2  0
  4  2  1  0
  5  4  2  0
  6  5  1  0
  7  6  2  0
  8  7  1  0
  9  4  1  0
  9  8  2  0
 10  8  1  0
 11 10  2  0
 12 11  1  0
 13 12  2  0
 14 13  1  0
 15 14  2  0
 15 10  1  0
M  END
