
     RDKit          3D

 20 21  0  0  0  0  0  0  0  0999 V2000
    6.8740   -0.8380   20.5170 N   0  0  0  0  0  0  0  0  0  0  0  0
    9.8230    1.0050   26.4580 C   0  0  0  0  0  0  0  0  0  0  0  0
   11.0030    0.8520   25.6630 O   0  0  0  0  0  0  0  0  0  0  0  0
   13.6820   -1.3080   22.0510 Cl  0  0  0  0  0  0  0  0  0  0  0  0
   10.9020    0.2020   24.4600 C   0  0  0  0  0  0  0  0  0  0  0  0
    6.2440    0.7990   17.2900 N   0  0  0  0  0  0  0  0  0  0  0  0
    8.6680    0.5010   20.9190 O   0  0  0  0  0  0  0  0  0  0  0  0
   12.1280   -0.0650   23.8710 C   0  0  0  0  0  0  0  0  0  0  0  0
   12.1500   -0.8660   22.7460 C   0  0  0  0  0  0  0  0  0  0  0  0
   10.9960   -1.3660   22.1870 C   0  0  0  0  0  0  0  0  0  0  0  0
    9.7690   -1.0680   22.7640 C   0  0  0  0  0  0  0  0  0  0  0  0
    8.4960   -1.5650   22.1310 C   0  0  0  0  0  0  0  0  0  0  0  0
    8.0360   -0.5350   21.1230 C   0  0  0  0  0  0  0  0  0  0  0  0
    6.2620   -0.0370   19.5390 C   0  0  0  0  0  0  0  0  0  0  0  0
    6.7630    0.0120   18.2390 C   0  0  0  0  0  0  0  0  0  0  0  0
    5.1850    1.5510   17.6180 C   0  0  0  0  0  0  0  0  0  0  0  0
    4.6210    1.5660   18.8770 C   0  0  0  0  0  0  0  0  0  0  0  0
    5.1640    0.7730   19.8820 C   0  0  0  0  0  0  0  0  0  0  0  0
    4.6430    0.8570   21.2940 C   0  0  0  0  0  0  0  0  0  0  0  0
    9.7230   -0.2780   23.9070 C   0  0  0  0  0  0  0  0  0  0  0  0
  3  2  1  0
  5  3  1  0
  8  5  2  0
  9  8  1  0
  9  4  1  0
 10  9  2  0
 11 10  1  0
 12 11  1  0
 13  7  2  0
 13  1  1  0
 13 12  1  0
 14  1  1  0
 15 14  1  0
 15  6  2  0
 16  6  1  0
 17 16  2  0
 18 17  1  0
 18 14  2  0
 19 18  1  0
 20 11  2  0
 20  5  1  0
M  END
