
     RDKit          3D

 20 21  0  0  0  0  0  0  0  0999 V2000
   12.7480   -1.5000   24.4600 N   0  0  0  0  0  0  0  0  0  0  0  0
   12.8870   -3.5990   25.7030 C   0  0  0  0  0  0  0  0  0  0  0  0
   14.5610   -1.9370   25.6940 O   0  0  0  0  0  0  0  0  0  0  0  0
   13.4690   -2.2860   25.2940 C   0  0  0  0  0  0  0  0  0  0  0  0
   10.3340   -0.8450   23.0590 N   0  0  0  0  0  0  0  0  0  0  0  0
    9.2540    0.5550   20.9580 O   0  0  0  0  0  0  0  0  0  0  0  0
   12.6090   -1.7990   23.0340 C   0  0  0  0  0  0  0  0  0  0  0  0
    7.2840   -0.6040   20.9920 N   0  0  0  0  0  0  0  0  0  0  0  0
   11.1410   -2.0180   22.6940 C   0  0  0  0  0  0  0  0  0  0  0  0
    6.4910    0.5260   17.5670 N   0  0  0  0  0  0  0  0  0  0  0  0
    8.9360   -1.0640   22.7000 C   0  0  0  0  0  0  0  0  0  0  0  0
    8.5180   -0.2920   21.4580 C   0  0  0  0  0  0  0  0  0  0  0  0
    6.5980    0.0080   19.9120 C   0  0  0  0  0  0  0  0  0  0  0  0
    7.0750   -0.0780   18.6040 C   0  0  0  0  0  0  0  0  0  0  0  0
    5.3890    1.2390   17.8120 C   0  0  0  0  0  0  0  0  0  0  0  0
    4.8290    1.3760   19.0660 C   0  0  0  0  0  0  0  0  0  0  0  0
    5.4290    0.7590   20.1550 C   0  0  0  0  0  0  0  0  0  0  0  0
    4.8410    0.9020   21.5340 C   0  0  0  0  0  0  0  0  0  0  0  0
   10.4770   -0.5650   24.5010 C   0  0  0  0  0  0  0  0  0  0  0  0
   11.9450   -0.3380   24.8660 C   0  0  0  0  0  0  0  0  0  0  0  0
  4  3  2  0
  4  2  1  0
  4  1  1  0
  7  1  1  0
  9  5  1  0
  9  7  1  0
 11  5  1  0
 12  8  1  0
 12  6  2  0
 12 11  1  0
 13  8  1  0
 14 13  1  0
 14 10  2  0
 15 10  1  0
 16 15  2  0
 17 16  1  0
 17 13  2  0
 18 17  1  0
 19  5  1  0
 20 19  1  0
 20  1  1  0
M  END
