
     RDKit          3D

 21 22  0  0  0  0  0  0  0  0999 V2000
   11.2350    6.0920   23.8590 O   0  0  0  0  0  0  0  0  0  0  0  0
   10.2880    5.0260   24.0020 S   0  0  1  0  0  0  0  0  0  0  0  0
    9.6790    4.8120   25.2800 O   0  0  0  0  0  0  0  0  0  0  0  0
    9.1110    5.2940   22.9480 N   0  0  0  0  0  0  0  0  0  0  0  0
   11.1100    3.5280   23.5580 C   0  0  0  0  0  0  0  0  0  0  0  0
   12.3060    3.5800   22.8620 C   0  0  0  0  0  0  0  0  0  0  0  0
   12.9620    2.4020   22.5590 C   0  0  0  0  0  0  0  0  0  0  0  0
   10.5570    2.3160   23.9420 C   0  0  0  0  0  0  0  0  0  0  0  0
   11.2180    1.1300   23.6250 C   0  0  0  0  0  0  0  0  0  0  0  0
   12.4380    1.1680   22.9390 C   0  0  0  0  0  0  0  0  0  0  0  0
   13.1490   -0.1240   22.6290 C   0  0  0  0  0  0  0  0  0  0  0  0
   12.1630   -1.2590   22.4460 C   0  0  0  0  0  0  0  0  0  0  0  0
   11.2590   -1.3860   23.6600 C   0  0  0  0  0  0  0  0  0  0  0  0
   10.5930   -0.1220   23.9850 N   0  0  0  0  0  0  0  0  0  0  0  0
    9.1330   -0.2040   24.0970 C   0  0  0  0  0  0  0  0  0  0  0  0
    8.6680   -0.7130   25.4490 C   0  0  0  0  0  0  0  0  0  0  0  0
    7.1990   -0.7110   25.4970 N   0  0  0  0  0  0  0  0  0  0  0  0
    6.3970    0.6820   25.7050 S   0  0  2  0  0  0  0  0  0  0  0  0
    7.3460    1.6340   26.1910 O   0  0  0  0  0  0  0  0  0  0  0  0
    5.2470    0.3890   26.5030 O   0  0  0  0  0  0  0  0  0  0  0  0
    5.8460    1.2150   24.1290 C   0  0  0  0  0  0  0  0  0  0  0  0
  2  1  2  0
  3  2  2  0
  2  4  1  6
  5  2  1  0
  6  5  2  0
  7  6  1  0
  8  5  1  0
  9  8  2  0
 10  9  1  0
 10  7  2  0
 11 10  1  0
 12 11  1  0
 13 12  1  0
 14 13  1  0
 14  9  1  0
 15 14  1  0
 16 15  1  0
 17 16  1  0
 18 17  1  0
 19 18  2  0
 20 18  2  0
 18 21  1  6
M  END
