
     RDKit          3D

 10 10  0  0  0  0  0  0  0  0999 V2000
   28.1450   53.8390   -7.7420 N   0  0  0  0  0  0  0  0  0  0  0  0
   28.8690   53.6090   -6.5210 C   0  0  0  0  0  0  0  0  0  0  0  0
   29.2710   54.5390   -5.9300 O   0  0  0  0  0  0  0  0  0  0  0  0
   29.1220   52.1760   -6.0310 C   0  0  0  0  0  0  0  0  0  0  0  0
   29.4570   51.8800   -4.7300 C   0  0  0  0  0  0  0  0  0  0  0  0
   29.7150   50.5520   -4.3630 C   0  0  0  0  0  0  0  0  0  0  0  0
   29.5940   49.5410   -5.3020 C   0  0  0  0  0  0  0  0  0  0  0  0
   29.8220   48.2080   -4.9380 O   0  0  0  0  0  0  0  0  0  0  0  0
   29.2630   49.8420   -6.6150 C   0  0  0  0  0  0  0  0  0  0  0  0
   29.0350   51.1530   -6.9500 C   0  0  0  0  0  0  0  0  0  0  0  0
  2  1  1  0
  3  2  2  0
  4  2  1  0
  5  4  2  0
  6  5  1  0
  7  6  2  0
  8  7  1  0
  9  7  1  0
 10  9  2  0
 10  4  1  0
M  END
