
     RDKit          3D

 15 16  0  0  0  0  0  0  0  0999 V2000
   28.3030   21.8000   -2.1810 N   0  0  0  0  0  0  0  0  0  0  0  0
   27.7010   23.3480   -4.0810 C   0  0  0  0  0  0  0  0  0  0  0  0
   28.8290   22.5010   -3.4260 C   0  0  1  0  0  0  0  0  0  0  0  0
   30.0830   23.3830   -3.1950 C   0  0  0  0  0  0  0  0  0  0  0  0
   28.4840   22.5050   -0.8870 C   0  0  0  0  0  0  0  0  0  0  0  0
   28.1560   20.3650   -2.1880 C   0  0  0  0  0  0  0  0  0  0  0  0
   27.9210   18.3680   -3.4570 C   0  0  0  0  0  0  0  0  0  0  0  0
   28.1240   18.1140   -1.2120 C   0  0  0  0  0  0  0  0  0  0  0  0
   28.1800   16.0800    0.3420 C   0  0  0  0  0  0  0  0  0  0  0  0
   28.3250   19.6760    0.4440 C   0  0  0  0  0  0  0  0  0  0  0  0
   28.2130   19.5420   -1.0000 C   0  0  0  0  0  0  0  0  0  0  0  0
   27.9960   19.7420   -3.4110 N   0  0  0  0  0  0  0  0  0  0  0  0
   27.9820   17.4850   -2.4400 N   0  0  0  0  0  0  0  0  0  0  0  0
   28.1940   17.5200    0.0550 N   0  0  0  0  0  0  0  0  0  0  0  0
   28.3100   18.4670    1.0470 N   0  0  0  0  0  0  0  0  0  0  0  0
  3  2  1  1
  3  1  1  0
  4  3  1  0
  5  1  1  0
  6  1  1  0
 11 10  1  0
 11  8  1  0
 11  6  2  0
 12  7  2  0
 12  6  1  0
 13  8  2  0
 13  7  1  0
 14  9  1  0
 14  8  1  0
 15 14  1  0
 15 10  2  0
M  END
