
     RDKit          3D

 22 23  0  0  0  0  0  0  0  0999 V2000
    6.4490    0.5990   17.4100 N   0  0  0  0  0  0  0  0  0  0  0  0
    4.4510    2.2920   21.7540 C   0  0  0  0  0  0  0  0  0  0  0  0
    8.9300    0.5310   21.1050 O   0  0  0  0  0  0  0  0  0  0  0  0
    4.8070    0.8660   21.3860 C   0  0  0  0  0  0  0  0  0  0  0  0
    7.1140   -0.7890   20.7590 N   0  0  0  0  0  0  0  0  0  0  0  0
    5.3610    0.7120   19.9870 C   0  0  0  0  0  0  0  0  0  0  0  0
   11.0750   -1.2630   22.7780 N   0  0  0  0  0  0  0  0  0  0  0  0
    4.7710    1.3910   18.9260 C   0  0  0  0  0  0  0  0  0  0  0  0
    5.3430    1.3040   17.6740 C   0  0  0  0  0  0  0  0  0  0  0  0
    7.0100   -0.0680   18.4230 C   0  0  0  0  0  0  0  0  0  0  0  0
    6.5050   -0.0540   19.7200 C   0  0  0  0  0  0  0  0  0  0  0  0
    8.2700   -0.4710   21.3720 C   0  0  0  0  0  0  0  0  0  0  0  0
    8.6880   -1.4330   22.4640 C   0  0  0  0  0  0  0  0  0  0  0  0
    9.8680   -0.8890   23.2320 C   0  0  0  0  0  0  0  0  0  0  0  0
    9.7090   -0.0140   24.3030 C   0  0  0  0  0  0  0  0  0  0  0  0
   10.8420    0.4970   24.9160 C   0  0  0  0  0  0  0  0  0  0  0  0
   12.0920    0.1250   24.4530 C   0  0  0  0  0  0  0  0  0  0  0  0
   12.1600   -0.7560   23.3840 C   0  0  0  0  0  0  0  0  0  0  0  0
   13.4770   -1.2190   22.8200 C   0  0  1  0  0  0  0  0  0  0  0  0
   13.9840   -2.2400   23.5130 F   0  0  0  0  0  0  0  0  0  0  0  0
   13.3790   -1.6190   21.5500 F   0  0  0  0  0  0  0  0  0  0  0  0
   14.3700   -0.2410   22.8030 F   0  0  0  0  0  0  0  0  0  0  0  0
  4  2  1  0
  6  4  1  0
  8  6  2  0
  9  8  1  0
  9  1  2  0
 10  1  1  0
 11  6  1  0
 11 10  2  0
 11  5  1  0
 12  5  1  0
 12  3  2  0
 13 12  1  0
 14 13  1  0
 14  7  2  0
 15 14  1  0
 16 15  2  0
 17 16  1  0
 18 17  2  0
 18  7  1  0
 19 18  1  0
 19 20  1  1
 21 19  1  0
 22 19  1  0
M  END
