
     RDKit          3D

 15 16  0  0  0  0  0  0  0  0999 V2000
   11.0140  -25.7950    3.4170 C   0  0  0  0  0  0  0  0  0  0  0  0
   12.1450  -25.0030    3.4990 C   0  0  0  0  0  0  0  0  0  0  0  0
   12.4310  -24.0860    2.4920 C   0  0  0  0  0  0  0  0  0  0  0  0
   11.5810  -23.9570    1.4170 C   0  0  0  0  0  0  0  0  0  0  0  0
   10.4380  -24.7530    1.3420 C   0  0  0  0  0  0  0  0  0  0  0  0
    9.4650  -24.6440    0.1240 C   0  0  0  0  0  0  0  0  0  0  0  0
    8.9890  -23.2650   -0.1070 N   0  0  0  0  0  0  0  0  0  0  0  0
    8.0660  -23.2740   -1.1770 C   0  0  0  0  0  0  0  0  0  0  0  0
    7.2450  -21.9780   -1.2180 C   0  0  0  0  0  0  0  0  0  0  0  0
    7.5940  -20.7870   -1.8500 C   0  0  0  0  0  0  0  0  0  0  0  0
    6.5610  -19.8850   -1.6350 C   0  0  0  0  0  0  0  0  0  0  0  0
    5.5740  -20.5600   -0.8600 C   0  0  0  0  0  0  0  0  0  0  0  0
    6.0110  -21.7950   -0.6410 O   0  0  0  0  0  0  0  0  0  0  0  0
   10.1580  -25.6720    2.3390 C   0  0  0  0  0  0  0  0  0  0  0  0
   10.7190  -26.6900    4.3830 F   0  0  0  0  0  0  0  0  0  0  0  0
  2  1  1  0
  3  2  1  0
  4  3  1  0
  5  4  1  0
  6  5  1  0
  7  6  1  0
  8  7  1  0
  9  8  1  0
 10  9  1  0
 11 10  1  0
 12 11  1  0
 13  9  1  0
 13 12  1  0
 14  5  1  0
 14  1  1  0
 15  1  1  0
M  END
$$$$
