
     RDKit          3D

 19 21  0  0  0  0  0  0  0  0999 V2000
    6.9710   -3.6740   21.3850 N   0  0  0  0  0  0  0  0  0  0  0  0
    6.6830   -2.9490   19.0500 C   0  0  0  0  0  0  0  0  0  0  0  0
    6.1560   -5.1170   19.8910 O   0  0  0  0  0  0  0  0  0  0  0  0
   13.7350   -1.5810   21.2140 Cl  0  0  0  0  0  0  0  0  0  0  0  0
    6.5940   -4.0070   20.1330 C   0  0  0  0  0  0  0  0  0  0  0  0
    8.7980   -2.6080   23.1270 N   0  0  0  0  0  0  0  0  0  0  0  0
    7.6320   -4.5420   22.3620 C   0  0  0  0  0  0  0  0  0  0  0  0
    7.7900   -3.6060   23.5580 C   0  0  2  0  0  0  0  0  0  0  0  0
    6.4650   -2.8410   23.4990 C   0  0  0  0  0  0  0  0  0  0  0  0
    6.7270   -2.3860   22.0620 C   0  0  1  0  0  0  0  0  0  0  0  0
    8.0590   -1.6700   22.2650 C   0  0  0  0  0  0  0  0  0  0  0  0
    9.5080   -1.9530   24.2320 C   0  0  0  0  0  0  0  0  0  0  0  0
   10.6910   -1.1430   23.7610 C   0  0  0  0  0  0  0  0  0  0  0  0
   10.9630    0.1020   24.3130 C   0  0  0  0  0  0  0  0  0  0  0  0
   12.0600    0.8390   23.8970 C   0  0  0  0  0  0  0  0  0  0  0  0
   12.9090    0.3390   22.9220 C   0  0  0  0  0  0  0  0  0  0  0  0
   12.6360   -0.9000   22.3800 C   0  0  0  0  0  0  0  0  0  0  0  0
   11.5390   -1.6410   22.7760 C   0  0  0  0  0  0  0  0  0  0  0  0
    8.3470   -3.3210   18.5660 S   0  0  0  0  0  0  0  0  0  0  0  0
  5  3  2  0
  5  2  1  0
  5  1  1  0
  7  1  1  0
  8  7  1  6
  8  6  1  0
  9  8  1  0
 10  1  1  0
 10  9  1  0
 10 11  1  1
 11  6  1  0
 12  6  1  0
 13 12  1  0
 14 13  2  0
 15 14  1  0
 16 15  2  0
 17  4  1  0
 17 16  1  0
 18 13  1  0
 18 17  2  0
  2 19  1  0
M  END
