
     RDKit          3D

 24 27  0  0  0  0  0  0  0  0999 V2000
    9.5430    0.6080   21.0440 O   0  0  0  0  0  0  0  0  0  0  0  0
    8.8390   -0.2250   21.6090 C   0  0  1  0  0  0  0  0  0  0  0  0
    9.3740   -1.1090   22.7390 C   0  0  2  0  0  0  0  0  0  0  0  0
    8.6730   -0.8520   24.0900 C   0  0  0  0  0  0  0  0  0  0  0  0
    9.0910    0.4850   24.6480 C   0  0  0  0  0  0  0  0  0  0  0  0
   10.5140    0.5770   24.8440 O   0  0  0  0  0  0  0  0  0  0  0  0
   12.5870    0.6400   23.7740 C   0  0  0  0  0  0  0  0  0  0  0  0
   11.2870    0.1570   23.7900 C   0  0  1  0  0  0  0  0  0  0  0  0
   10.8500   -0.7850   22.8560 C   0  0  2  0  0  0  0  0  0  0  0  0
   11.7810   -1.3050   21.9620 C   0  0  0  0  0  0  0  0  0  0  0  0
   13.4840    0.1480   22.8450 C   0  0  0  0  0  0  0  0  0  0  0  0
   13.0750   -0.8330   21.9710 C   0  0  0  0  0  0  0  0  0  0  0  0
   14.2290   -1.5320   20.8850 Cl  0  0  0  0  0  0  0  0  0  0  0  0
    7.5230   -0.3690   21.3510 N   0  0  0  0  0  0  0  0  0  0  0  0
    6.8020   -0.1030   20.1740 C   0  0  2  0  0  0  0  0  0  0  0  0
    7.3180   -0.1680   18.8820 C   0  0  0  0  0  0  0  0  0  0  0  0
    5.5690    0.9450   17.9430 C   0  0  0  0  0  0  0  0  0  0  0  0
    4.9210    1.1130   19.1890 C   0  0  2  0  0  0  0  0  0  0  0  0
    6.7260    0.3210   17.7870 N   0  0  0  0  0  0  0  0  0  0  0  0
    3.7320    1.8530   19.3940 C   0  0  0  0  0  0  0  0  0  0  0  0
    3.7590    1.4770   21.6450 C   0  0  0  0  0  0  0  0  0  0  0  0
    4.9110    0.7500   21.5860 C   0  0  0  0  0  0  0  0  0  0  0  0
    3.1630    2.0320   20.5810 N   0  0  0  0  0  0  0  0  0  0  0  0
    5.5410    0.5490   20.3350 C   0  0  2  0  0  0  0  0  0  0  0  0
  2  1  1  1
  3  2  1  0
  3  4  1  1
  5  4  1  0
  6  5  1  0
  8  6  1  0
  8  7  1  1
  9  3  1  0
  9  8  1  0
  9 10  1  6
 11  7  1  0
 12 11  1  0
 12 10  1  0
 13 12  1  0
 14  2  1  0
 15 14  1  1
 16 15  1  0
 18 17  1  1
 19 17  1  0
 19 16  1  0
 20 18  1  0
 22 21  1  0
 23 21  1  0
 23 20  1  0
 24 22  1  1
 24 18  1  0
 24 15  1  0
M  END
$$$$
