
     RDKit          3D

 14 14  0  0  0  0  0  0  0  0999 V2000
   12.6250   54.0940  -15.4790 C   0  0  0  0  0  0  0  0  0  0  0  0
   11.8440   53.8890  -16.6890 N   0  0  0  0  0  0  0  0  0  0  0  0
   11.2650   55.0730  -17.3060 C   0  0  0  0  0  0  0  0  0  0  0  0
   11.6870   52.6270  -17.2420 C   0  0  0  0  0  0  0  0  0  0  0  0
   12.2660   51.5030  -16.6500 C   0  0  0  0  0  0  0  0  0  0  0  0
   12.1050   50.2470  -17.2060 C   0  0  0  0  0  0  0  0  0  0  0  0
   10.9240   52.4330  -18.4030 C   0  0  0  0  0  0  0  0  0  0  0  0
   10.7660   51.1670  -18.9410 C   0  0  0  0  0  0  0  0  0  0  0  0
   11.3700   50.0610  -18.3660 C   0  0  0  0  0  0  0  0  0  0  0  0
   11.3160   48.7090  -19.0360 C   0  0  0  0  0  0  0  0  0  0  0  0
   12.3280   48.6140  -20.0970 N   0  0  0  0  0  0  0  0  0  0  0  0
   12.4740   47.2880  -20.7300 C   0  0  1  0  0  0  0  0  0  0  0  0
   11.2380   46.9420  -21.5250 C   0  0  0  0  0  0  0  0  0  0  0  0
   13.7130   47.2630  -21.5980 C   0  0  0  0  0  0  0  0  0  0  0  0
  2  1  1  0
  3  2  1  0
  4  2  1  0
  5  4  2  0
  6  5  1  0
  7  4  1  0
  8  7  2  0
  9  8  1  0
  9  6  2  0
 10  9  1  0
 11 10  1  0
 12 11  1  0
 12 13  1  6
 14 12  1  0
M  END
