
     RDKit          3D

 16 17  0  0  0  0  0  0  0  0999 V2000
    9.1080    0.5440   21.0920 O   0  0  0  0  0  0  0  0  0  0  0  0
    8.4280   -0.4490   21.3510 C   0  0  0  0  0  0  0  0  0  0  0  0
    8.8260   -1.4140   22.4460 C   0  0  0  0  0  0  0  0  0  0  0  0
   10.0060   -0.7650   23.1060 C   0  0  0  0  0  0  0  0  0  0  0  0
   10.0050   -0.0300   24.2720 C   0  0  0  0  0  0  0  0  0  0  0  0
   11.2620    0.4910   24.6070 C   0  0  0  0  0  0  0  0  0  0  0  0
   11.5930   -0.8300   22.4250 S   0  0  0  0  0  0  0  0  0  0  0  0
   12.2030    0.1370   23.7030 C   0  0  0  0  0  0  0  0  0  0  0  0
   13.8680    0.5450   23.7400 Cl  0  0  0  0  0  0  0  0  0  0  0  0
    7.2780   -0.7580   20.7130 N   0  0  0  0  0  0  0  0  0  0  0  0
    6.6350   -0.0180   19.6980 C   0  0  0  0  0  0  0  0  0  0  0  0
    7.2210    0.1430   18.4430 C   0  0  0  0  0  0  0  0  0  0  0  0
    6.6390    0.8050   17.4370 N   0  0  0  0  0  0  0  0  0  0  0  0
    5.4370    1.3460   17.6650 C   0  0  0  0  0  0  0  0  0  0  0  0
    4.7780    1.2560   18.8770 C   0  0  0  0  0  0  0  0  0  0  0  0
    5.3860    0.5570   19.9070 C   0  0  0  0  0  0  0  0  0  0  0  0
  2  1  2  0
  3  2  1  0
  4  3  1  0
  5  4  2  0
  6  5  1  0
  7  4  1  0
  8  7  1  0
  8  6  2  0
  9  8  1  0
 10  2  1  0
 11 10  1  0
 12 11  2  0
 13 12  1  0
 14 13  2  0
 15 14  1  0
 16 15  2  0
 16 11  1  0
M  END
