
     RDKit          3D

 18 19  0  0  0  0  0  0  0  0999 V2000
    8.5130    0.6890   24.9290 N   0  0  0  0  0  0  0  0  0  0  0  0
    7.7680    1.4470   24.0240 C   0  0  0  0  0  0  0  0  0  0  0  0
    8.2400    2.4440   23.4540 O   0  0  0  0  0  0  0  0  0  0  0  0
    9.8970    1.0230   25.2550 C   0  0  0  0  0  0  0  0  0  0  0  0
   14.0390   -1.7690   20.5790 N   0  0  0  0  0  0  0  0  0  0  0  0
    3.5380    1.0600   23.6660 O   0  0  0  0  0  0  0  0  0  0  0  0
   10.8180    0.3990   24.2450 C   0  0  0  0  0  0  0  0  0  0  0  0
    6.3990    0.9470   23.8140 N   0  0  0  0  0  0  0  0  0  0  0  0
   11.9810    1.0600   23.8590 C   0  0  0  0  0  0  0  0  0  0  0  0
   12.8310    0.4800   22.9200 C   0  0  0  0  0  0  0  0  0  0  0  0
   12.4970   -0.7580   22.3610 C   0  0  0  0  0  0  0  0  0  0  0  0
   13.3360   -1.3320   21.3790 C   0  0  0  0  0  0  0  0  0  0  0  0
   11.3380   -1.4270   22.7460 C   0  0  0  0  0  0  0  0  0  0  0  0
   10.5000   -0.8480   23.6910 C   0  0  0  0  0  0  0  0  0  0  0  0
    5.5440    0.8350   25.0400 C   0  0  0  0  0  0  0  0  0  0  0  0
    4.1120    0.3350   24.7390 C   0  0  0  0  0  0  0  0  0  0  0  0
    4.2840    1.0250   22.4660 C   0  0  0  0  0  0  0  0  0  0  0  0
    5.6790    1.6350   22.7100 C   0  0  0  0  0  0  0  0  0  0  0  0
  2  1  1  0
  3  2  2  0
  4  1  1  0
  7  4  1  0
  8  2  1  0
  9  7  2  0
 10  9  1  0
 11 10  2  0
 12  5  3  0
 12 11  1  0
 13 11  1  0
 14  7  1  0
 14 13  2  0
 15  8  1  0
 16  6  1  0
 16 15  1  0
 17  6  1  0
 18 17  1  0
 18  8  1  0
M  END
