
     RDKit          3D

 24 27  0  0  0  0  0  0  0  0999 V2000
    8.9440    1.3610   21.0430 O   0  0  0  0  0  0  0  0  0  0  0  0
    8.3910    0.2850   21.2570 C   0  0  0  0  0  0  0  0  0  0  0  0
    8.8120   -0.6420   22.3970 C   0  0  2  0  0  0  0  0  0  0  0  0
    8.2750   -0.0620   23.6980 C   0  0  0  0  0  0  0  0  0  0  0  0
    9.3490    0.7830   24.2020 O   0  0  0  0  0  0  0  0  0  0  0  0
   10.3020   -0.5320   22.6170 C   0  0  0  0  0  0  0  0  0  0  0  0
   10.5370    0.3230   23.6750 C   0  0  0  0  0  0  0  0  0  0  0  0
   11.8160    0.6430   24.0930 C   0  0  0  0  0  0  0  0  0  0  0  0
   12.8900    0.0880   23.4150 C   0  0  0  0  0  0  0  0  0  0  0  0
   11.3780   -1.1010   21.9500 C   0  0  0  0  0  0  0  0  0  0  0  0
   12.6570   -0.7750   22.3560 C   0  0  0  0  0  0  0  0  0  0  0  0
   14.0070   -1.4480   21.4930 Cl  0  0  0  0  0  0  0  0  0  0  0  0
    7.4860   -0.2440   20.3980 N   0  0  0  0  0  0  0  0  0  0  0  0
    6.7600    0.1960   19.3350 C   0  0  0  0  0  0  0  0  0  0  0  0
    6.0190    1.3850   19.3350 N   0  0  0  0  0  0  0  0  0  0  0  0
    5.7880    1.6080   17.9990 C   0  0  0  0  0  0  0  0  0  0  0  0
    6.2990    0.6670   17.2610 N   0  0  0  0  0  0  0  0  0  0  0  0
    6.9010   -0.2490   18.1010 N   0  0  0  0  0  0  0  0  0  0  0  0
    5.4380    2.1780   20.3900 C   0  0  0  0  0  0  0  0  0  0  0  0
    4.0570    2.3630   20.4270 C   0  0  0  0  0  0  0  0  0  0  0  0
    3.5080    3.2630   21.3310 C   0  0  0  0  0  0  0  0  0  0  0  0
    4.3210    3.9690   22.1970 C   0  0  0  0  0  0  0  0  0  0  0  0
    5.6900    3.7720   22.1730 C   0  0  0  0  0  0  0  0  0  0  0  0
    6.2560    2.8760   21.2780 C   0  0  0  0  0  0  0  0  0  0  0  0
  2  1  2  0
  3  2  1  6
  4  3  1  0
  5  4  1  0
  6  3  1  0
  7  6  2  0
  7  5  1  0
  8  7  1  0
  9  8  2  0
 10  6  1  0
 11 10  2  0
 11  9  1  0
 12 11  1  0
 13  2  1  0
 14 13  1  0
 15 14  1  0
 16 15  1  0
 17 16  2  0
 18 17  1  0
 18 14  2  0
 19 15  1  0
 20 19  2  0
 21 20  1  0
 22 21  2  0
 23 22  1  0
 24 19  1  0
 24 23  2  0
M  END
