
     RDKit          3D

 13 13  0  0  0  0  0  0  0  0999 V2000
    6.2370   -5.1590   24.2880 N   0  0  0  0  0  0  0  0  0  0  0  0
    4.9300   -6.1670   26.0870 C   0  0  0  0  0  0  0  0  0  0  0  0
    7.2190   -5.5920   26.2560 O   0  0  0  0  0  0  0  0  0  0  0  0
    6.2150   -5.6160   25.5540 C   0  0  0  0  0  0  0  0  0  0  0  0
    6.9090   -4.9460   21.5540 N   0  0  0  0  0  0  0  0  0  0  0  0
    5.9950   -4.2650   19.5960 O   0  0  0  0  0  0  0  0  0  0  0  0
    5.2700   -5.5430   23.2540 C   0  0  0  0  0  0  0  0  0  0  0  0
    5.9710   -5.9770   21.9840 C   0  0  0  0  0  0  0  0  0  0  0  0
    7.8990   -4.6340   22.5830 C   0  0  0  0  0  0  0  0  0  0  0  0
    7.2050   -4.1610   23.8370 C   0  0  0  0  0  0  0  0  0  0  0  0
    6.9370   -4.2960   20.3750 C   0  0  0  0  0  0  0  0  0  0  0  0
    8.2360   -3.6040   20.0710 C   0  0  0  0  0  0  0  0  0  0  0  0
    8.5520   -3.3010   18.3270 S   0  0  0  0  0  0  0  0  0  0  0  0
  4  2  1  0
  4  3  2  0
  4  1  1  0
  7  1  1  0
  8  7  1  0
  8  5  1  0
  9  5  1  0
 10  9  1  0
 10  1  1  0
 11  6  2  0
 11  5  1  0
 12 11  1  0
 12 13  1  0
M  END
