
     RDKit          3D

 26 28  0  0  0  0  0  0  0  0999 V2000
    7.2260   -1.4680   21.3440 N   0  0  0  0  0  0  0  0  0  0  0  0
   10.3350    2.6720   23.8580 C   0  0  0  0  0  0  0  0  0  0  0  0
   10.0830    1.3020   23.5570 O   0  0  0  0  0  0  0  0  0  0  0  0
   11.1440    0.5210   23.1810 C   0  0  0  0  0  0  0  0  0  0  0  0
    4.7700    1.6450   18.1780 N   0  0  0  0  0  0  0  0  0  0  0  0
    9.4780   -1.1060   22.9010 O   0  0  0  0  0  0  0  0  0  0  0  0
   12.4590    0.9590   23.0780 C   0  0  0  0  0  0  0  0  0  0  0  0
    5.3040   -2.4940   20.7980 O   0  0  0  0  0  0  0  0  0  0  0  0
   13.4350    0.0900   22.6170 C   0  0  0  0  0  0  0  0  0  0  0  0
    6.4530    1.1900   16.7410 O   0  0  0  0  0  0  0  0  0  0  0  0
   13.1120   -1.2080   22.2710 C   0  0  0  0  0  0  0  0  0  0  0  0
   11.8070   -1.6650   22.3880 C   0  0  0  0  0  0  0  0  0  0  0  0
   10.8160   -0.8020   22.8320 C   0  0  1  0  0  0  0  0  0  0  0  0
    9.0550   -2.4570   22.6540 C   0  0  0  0  0  0  0  0  0  0  0  0
    7.5800   -2.4290   22.3800 C   0  0  0  0  0  0  0  0  0  0  0  0
    6.0610   -1.5260   20.6980 C   0  0  0  0  0  0  0  0  0  0  0  0
    5.6810   -0.3270   19.8920 C   0  0  1  0  0  0  0  0  0  0  0  0
    6.2670   -0.1250   18.6820 C   0  0  0  0  0  0  0  0  0  0  0  0
    5.8500    0.9020   17.7800 C   0  0  1  0  0  0  0  0  0  0  0  0
    4.1370    1.5160   19.4100 C   0  0  0  0  0  0  0  0  0  0  0  0
    3.0940    2.3650   19.7640 C   0  0  0  0  0  0  0  0  0  0  0  0
    2.5660    2.2590   21.0250 C   0  0  0  0  0  0  0  0  0  0  0  0
    3.0060    1.3550   21.9550 C   0  0  0  0  0  0  0  0  0  0  0  0
    4.0300    0.4950   21.5990 C   0  0  0  0  0  0  0  0  0  0  0  0
    4.5980    0.5500   20.3250 C   0  0  0  0  0  0  0  0  0  0  0  0
    1.5720    3.1270   21.3780 F   0  0  0  0  0  0  0  0  0  0  0  0
  3  2  1  0
  4  3  1  0
  7  4  1  0
  9  7  1  0
 11  9  1  0
 12 11  1  0
 13  6  1  6
 13 12  1  0
 13  4  1  0
 14  6  1  0
 15  1  1  0
 15 14  1  0
 16  8  1  0
 16  1  1  0
 17 16  1  6
 18 17  1  0
 19  5  1  0
 19 18  1  0
 19 10  1  1
 20  5  1  0
 21 20  1  0
 22 21  1  0
 23 22  1  0
 24 23  1  0
 25 24  1  0
 25 20  1  0
 25 17  1  0
 26 22  1  0
M  END
$$$$
