
     RDKit          3D

 25 27  0  0  0  0  0  0  0  0999 V2000
    7.8400   -2.1440   24.3400 N   0  0  0  0  0  0  0  0  0  0  0  0
    5.3980    1.1270   25.9550 C   0  0  2  0  0  0  0  0  0  0  0  0
    4.5450    1.8000   26.8740 O   0  0  0  0  0  0  0  0  0  0  0  0
    4.7210   -0.1250   25.4360 C   0  0  0  0  0  0  0  0  0  0  0  0
    6.8800   -4.5610   21.5580 N   0  0  0  0  0  0  0  0  0  0  0  0
    5.5860   -5.0530   19.7890 O   0  0  0  0  0  0  0  0  0  0  0  0
    5.6200   -0.8740   24.4470 C   0  0  0  0  0  0  0  0  0  0  0  0
    6.9610   -1.2260   25.0950 C   0  0  2  0  0  0  0  0  0  0  0  0
    7.6460    0.0300   25.6420 C   0  0  0  0  0  0  0  0  0  0  0  0
    6.7220    0.7840   26.6100 C   0  0  0  0  0  0  0  0  0  0  0  0
    9.0450   -2.5980   25.1620 C   0  0  0  0  0  0  0  0  0  0  0  0
   10.4220   -2.4610   24.4790 C   0  0  0  0  0  0  0  0  0  0  0  0
   11.5360   -2.2640   25.5110 C   0  0  0  0  0  0  0  0  0  0  0  0
   12.9270   -2.1910   24.8730 C   0  0  0  0  0  0  0  0  0  0  0  0
   12.9950   -1.1100   23.8000 C   0  0  0  0  0  0  0  0  0  0  0  0
   11.8800   -1.2880   22.7710 C   0  0  0  0  0  0  0  0  0  0  0  0
   10.5040   -1.3460   23.4380 C   0  0  0  0  0  0  0  0  0  0  0  0
    7.1820   -3.2460   23.6000 C   0  0  2  0  0  0  0  0  0  0  0  0
    6.7380   -4.4560   24.4300 C   0  0  0  0  0  0  0  0  0  0  0  0
    5.8330   -5.3850   23.6190 C   0  0  0  0  0  0  0  0  0  0  0  0
    6.4920   -5.7670   22.3010 C   0  0  0  0  0  0  0  0  0  0  0  0
    7.8000   -3.6740   22.2780 C   0  0  0  0  0  0  0  0  0  0  0  0
    6.4040   -4.3250   20.3170 C   0  0  0  0  0  0  0  0  0  0  0  0
    6.9380   -3.1240   19.5620 C   0  0  0  0  0  0  0  0  0  0  0  0
    8.5080   -3.5310   18.7570 S   0  0  0  0  0  0  0  0  0  0  0  0
  2  3  1  1
  4  2  1  0
  7  4  1  0
  8  7  1  0
  8  1  1  6
  9  8  1  0
 10  2  1  0
 10  9  1  0
 11  1  1  0
 12 11  1  0
 13 12  1  0
 14 13  1  0
 15 14  1  0
 16 15  1  0
 17 12  1  0
 17 16  1  0
 18  1  1  1
 19 18  1  0
 20 19  1  0
 21  5  1  0
 21 20  1  0
 22  5  1  0
 22 18  1  0
 23  6  1  0
 23  5  1  0
 24 23  1  0
 24 25  1  0
M  END
