
     RDKit          3D

 29 30  0  0  0  0  0  0  0  0999 V2000
   12.1480    4.8090   23.3280 C   0  0  0  0  0  0  0  0  0  0  0  0
   12.6620    5.7900   24.2160 C   0  0  0  0  0  0  0  0  0  0  0  0
   13.6030    6.7500   23.7920 C   0  0  0  0  0  0  0  0  0  0  0  0
   14.0640    6.7380   22.4640 C   0  0  0  0  0  0  0  0  0  0  0  0
   13.5740    5.7750   21.5830 C   0  0  0  0  0  0  0  0  0  0  0  0
   12.6340    4.8260   22.0150 C   0  0  0  0  0  0  0  0  0  0  0  0
   11.1020    3.7820   23.7720 C   0  0  0  0  0  0  0  0  0  0  0  0
    9.9310    3.5130   22.8440 O   0  0  0  0  0  0  0  0  0  0  0  0
    9.8870    2.2170   22.1820 C   0  0  0  0  0  0  0  0  0  0  0  0
    9.4580    2.1720   21.0160 O   0  0  0  0  0  0  0  0  0  0  0  0
   10.3910    1.0270   22.8760 N   0  0  0  0  0  0  0  0  0  0  0  0
   10.4640   -0.2640   22.1610 C   0  0  1  0  0  0  0  0  0  0  0  0
   11.1900   -1.3640   22.9710 C   0  0  0  0  0  0  0  0  0  0  0  0
   12.6320   -0.9310   23.3780 C   0  0  2  0  0  0  0  0  0  0  0  0
   13.4880   -0.4880   22.1360 C   0  0  0  0  0  0  0  0  0  0  0  0
   13.3610   -2.0220   24.1760 C   0  0  0  0  0  0  0  0  0  0  0  0
    9.0850   -0.6630   21.9300 C   0  0  1  0  0  0  0  0  0  0  0  0
    8.2610   -0.2070   22.7170 O   0  0  0  0  0  0  0  0  0  0  0  0
    8.7690   -1.4540   20.7780 N   0  0  0  0  0  0  0  0  0  0  0  0
    7.3810   -1.9460   20.3730 C   0  0  2  0  0  0  0  0  0  0  0  0
    7.4120   -3.4050   19.7650 C   0  0  0  0  0  0  0  0  0  0  0  0
    6.1360   -3.8010   19.2770 O   0  0  0  0  0  0  0  0  0  0  0  0
    6.7040   -0.9940   19.3070 C   0  0  0  0  0  0  0  0  0  0  0  0
    6.4570    0.4820   19.7560 C   0  0  2  0  0  0  0  0  0  0  0  0
    5.0810    0.7230   20.4260 C   0  0  0  0  0  0  0  0  0  0  0  0
    4.5390    2.0650   19.8580 C   0  0  0  0  0  0  0  0  0  0  0  0
    5.2960    2.2560   18.6200 N   0  0  0  0  0  0  0  0  0  0  0  0
    6.4030    1.3870   18.4980 C   0  0  0  0  0  0  0  0  0  0  0  0
    7.1730    1.3570   17.5660 O   0  0  0  0  0  0  0  0  0  0  0  0
  2  1  1  0
  3  2  1  0
  4  3  1  0
  5  4  1  0
  6  1  1  0
  6  5  1  0
  7  1  1  0
  8  7  1  0
  9  8  1  0
 10  9  1  0
 11  9  1  0
 12 11  1  0
 12 13  1  1
 14 13  1  0
 14 15  1  6
 16 14  1  0
 17 12  1  0
 17 18  1  6
 19 17  1  0
 20 19  1  0
 20 21  1  6
 22 21  1  0
 23 20  1  0
 24 23  1  6
 25 24  1  0
 26 25  1  0
 27 26  1  0
 28 27  1  0
 28 24  1  0
 29 28  1  0
M  END
