
     RDKit          3D

 15 15  0  0  0  0  0  0  0  0999 V2000
   16.2050    2.3240  -14.6950 C   0  0  0  0  0  0  0  0  0  0  0  0
   17.0160    3.2430  -14.0320 O   0  0  0  0  0  0  0  0  0  0  0  0
   16.7500    3.2690  -12.6710 C   0  0  0  0  0  0  0  0  0  0  0  0
   15.8510    3.9330  -12.2780 O   0  0  0  0  0  0  0  0  0  0  0  0
   17.6090    2.4220  -11.7440 C   0  0  0  0  0  0  0  0  0  0  0  0
   18.7030    1.7430  -12.2430 C   0  0  0  0  0  0  0  0  0  0  0  0
   19.4790    0.9670  -11.4020 C   0  0  0  0  0  0  0  0  0  0  0  0
   19.1730    0.8610  -10.0620 C   0  0  0  0  0  0  0  0  0  0  0  0
   18.0810    1.5400   -9.5510 C   0  0  0  0  0  0  0  0  0  0  0  0
   17.7790    1.4060   -8.1330 N   0  0  0  0  0  0  0  0  0  0  0  0
   17.4510    2.7630   -7.1500 S   0  0  1  0  0  0  0  0  0  0  0  0
   17.2260    2.3600   -5.7490 O   0  0  0  0  0  0  0  0  0  0  0  0
   18.6190    3.6320   -7.0090 O   0  0  0  0  0  0  0  0  0  0  0  0
   16.0400    3.6480   -7.7390 C   0  0  0  0  0  0  0  0  0  0  0  0
   17.3050    2.3190  -10.4020 C   0  0  0  0  0  0  0  0  0  0  0  0
  2  1  1  0
  3  2  1  0
  4  3  2  0
  5  3  1  0
  6  5  2  0
  7  6  1  0
  8  7  2  0
  9  8  1  0
 10  9  1  0
 11 10  1  0
 12 11  2  0
 13 11  2  0
 11 14  1  6
 15  5  1  0
 15  9  2  0
M  END
