
     RDKit          3D

  7  7  0  0  0  0  0  0  0  0999 V2000
   18.5100   38.0940  -21.5980 O   0  0  0  0  0  0  0  0  0  0  0  0
   17.5500   38.9350  -21.9310 C   0  0  0  0  0  0  0  0  0  0  0  0
   17.9210   40.1500  -22.4590 N   0  0  0  0  0  0  0  0  0  0  0  0
   16.9240   40.9650  -22.8450 C   0  0  0  0  0  0  0  0  0  0  0  0
   15.5780   40.6510  -22.7280 C   0  0  0  0  0  0  0  0  0  0  0  0
   15.2330   39.4330  -22.1740 C   0  0  0  0  0  0  0  0  0  0  0  0
   16.2200   38.5460  -21.7690 C   0  0  0  0  0  0  0  0  0  0  0  0
  2  1  1  0
  3  2  1  0
  4  3  1  0
  5  4  1  0
  6  5  1  0
  7  6  1  0
  7  2  1  0
M  END
$$$$
