
     RDKit          3D

 27 29  0  0  0  0  0  0  0  0999 V2000
   13.5240   -1.8400   22.3340 Cl  0  0  0  0  0  0  0  0  0  0  0  0
   12.2160   -0.8880   22.9460 C   0  0  0  0  0  0  0  0  0  0  0  0
   12.4600    0.2270   23.7300 C   0  0  0  0  0  0  0  0  0  0  0  0
   14.0800    0.6840   24.1520 Cl  0  0  0  0  0  0  0  0  0  0  0  0
   11.4030    0.9860   24.1990 C   0  0  0  0  0  0  0  0  0  0  0  0
   10.1060    0.6240   23.8880 C   0  0  0  0  0  0  0  0  0  0  0  0
   10.9150   -1.2470   22.6340 C   0  0  0  0  0  0  0  0  0  0  0  0
    9.8430   -0.4930   23.1060 C   0  0  0  0  0  0  0  0  0  0  0  0
    8.4170   -0.8830   22.7920 C   0  0  2  0  0  0  0  0  0  0  0  0
    8.3630   -2.2570   22.3990 O   0  0  0  0  0  0  0  0  0  0  0  0
    7.5090   -3.0530   23.2260 C   0  0  0  0  0  0  0  0  0  0  0  0
    7.4160   -4.4370   22.6670 C   0  0  0  0  0  0  0  0  0  0  0  0
    6.2950   -5.1300   23.1820 O   0  0  0  0  0  0  0  0  0  0  0  0
    5.8710   -6.1890   22.3310 C   0  0  0  0  0  0  0  0  0  0  0  0
    7.8090    0.0310   21.7260 C   0  0  1  0  0  0  0  0  0  0  0  0
    7.8660    1.2500   21.8610 O   0  0  0  0  0  0  0  0  0  0  0  0
    7.3130   -0.5890   20.6310 N   0  0  0  0  0  0  0  0  0  0  0  0
    6.3570   -0.1700   19.6740 C   0  0  1  0  0  0  0  0  0  0  0  0
    5.3180    0.7660   20.0010 C   0  0  2  0  0  0  0  0  0  0  0  0
    4.7930    0.9400   21.3110 C   0  0  0  0  0  0  0  0  0  0  0  0
    3.7130    1.7440   21.5370 C   0  0  0  0  0  0  0  0  0  0  0  0
    3.1020    2.4210   20.4920 C   0  0  0  0  0  0  0  0  0  0  0  0
    3.5600    2.2840   19.2140 C   0  0  0  0  0  0  0  0  0  0  0  0
    4.6670    1.4440   18.9300 C   0  0  2  0  0  0  0  0  0  0  0  0
    5.0780    1.1430   17.6120 C   0  0  0  0  0  0  0  0  0  0  0  0
    5.9930    0.2410   17.3070 N   0  0  0  0  0  0  0  0  0  0  0  0
    6.5910   -0.3980   18.3200 C   0  0  0  0  0  0  0  0  0  0  0  0
  2  1  1  0
  3  2  1  0
  4  3  1  0
  5  3  1  0
  6  5  1  0
  7  2  1  0
  8  6  1  0
  8  7  1  0
  9  8  1  0
  9 10  1  6
 11 10  1  0
 12 11  1  0
 13 12  1  0
 14 13  1  0
 15  9  1  0
 15 16  1  6
 17 15  1  0
 18 17  1  6
 19 18  1  0
 19 20  1  6
 21 20  1  0
 22 21  1  0
 23 22  1  0
 24 23  1  6
 24 19  1  0
 25 24  1  0
 26 25  1  0
 27 26  1  0
 27 18  1  0
M  END
$$$$
