
     RDKit          3D

 13 15  0  0  0  0  0  0  0  0999 V2000
   28.0620   51.6000   -8.8420 N   0  0  0  0  0  0  0  0  0  0  0  0
   28.6460   52.1630   -7.6380 C   0  0  0  0  0  0  0  0  0  0  0  0
   28.7230   53.5040   -7.4860 C   0  0  0  0  0  0  0  0  0  0  0  0
   28.2750   54.6380   -8.4180 C   0  0  0  0  0  0  0  0  0  0  0  0
   29.0090   55.8150   -7.8990 C   0  0  0  0  0  0  0  0  0  0  0  0
   29.1800   55.5110   -6.4520 C   0  0  0  0  0  0  0  0  0  0  0  0
   29.2640   54.0300   -6.3470 C   0  0  0  0  0  0  0  0  0  0  0  0
   29.7490   53.2750   -5.3730 N   0  0  0  0  0  0  0  0  0  0  0  0
   29.6960   51.9160   -5.5600 C   0  0  0  0  0  0  0  0  0  0  0  0
   30.0740   50.8930   -4.7660 N   0  0  0  0  0  0  0  0  0  0  0  0
   29.7820   49.7450   -5.4240 C   0  0  0  0  0  0  0  0  0  0  0  0
   29.2130   50.0350   -6.5830 N   0  0  0  0  0  0  0  0  0  0  0  0
   29.1200   51.3920   -6.6500 N   0  0  0  0  0  0  0  0  0  0  0  0
  2  1  1  0
  3  2  2  0
  4  3  1  0
  5  4  1  0
  6  5  1  0
  7  3  1  0
  7  6  1  0
  8  7  2  0
  9  8  1  0
 10  9  2  0
 11 10  1  0
 12 11  2  0
 13 12  1  0
 13  9  1  0
 13  2  1  0
M  END
