
     RDKit          3D

  9  9  0  0  0  0  0  0  0  0999 V2000
   -3.1190    4.5930  -13.5740 C   0  0  0  0  0  0  0  0  0  0  0  0
   -2.0140    4.4350  -14.0910 O   0  0  0  0  0  0  0  0  0  0  0  0
   -4.1010    3.4840  -13.8830 O   0  0  0  0  0  0  0  0  0  0  0  0
   -4.5350    3.3490  -15.4160 C   0  0  1  0  0  0  0  0  0  0  0  0
   -5.8720    3.3530  -15.8760 C   0  0  0  0  0  0  0  0  0  0  0  0
   -6.1770    3.3280  -17.2770 C   0  0  0  0  0  0  0  0  0  0  0  0
   -5.1540    3.3520  -18.2690 C   0  0  0  0  0  0  0  0  0  0  0  0
   -3.8380    3.3130  -17.8480 C   0  0  0  0  0  0  0  0  0  0  0  0
   -3.5360    3.3410  -16.4780 C   0  0  0  0  0  0  0  0  0  0  0  0
  2  1  1  0
  3  1  1  0
  4  3  1  6
  5  4  1  0
  6  5  1  0
  7  6  1  0
  8  7  1  0
  9  8  1  0
  9  4  1  0
M  END
$$$$
