
     RDKit          3D

 11 11  0  0  0  0  0  0  0  0999 V2000
   33.4540   46.0840   -8.4130 O   0  0  0  0  0  0  0  0  0  0  0  0
   32.3680   45.7620   -7.9280 C   0  0  0  0  0  0  0  0  0  0  0  0
   31.2660   46.0040   -8.4870 O   0  0  0  0  0  0  0  0  0  0  0  0
   32.4200   45.0340   -6.6500 C   0  0  0  0  0  0  0  0  0  0  0  0
   31.3160   45.4920   -5.7500 C   0  0  0  0  0  0  0  0  0  0  0  0
   31.3740   46.7350   -5.1080 C   0  0  0  0  0  0  0  0  0  0  0  0
   30.3240   47.1450   -4.2900 C   0  0  0  0  0  0  0  0  0  0  0  0
   29.2460   46.2930   -4.1210 C   0  0  0  0  0  0  0  0  0  0  0  0
   29.2070   45.0640   -4.8030 C   0  0  0  0  0  0  0  0  0  0  0  0
   28.1860   44.1400   -4.7220 O   0  0  0  0  0  0  0  0  0  0  0  0
   30.2250   44.6680   -5.6170 C   0  0  0  0  0  0  0  0  0  0  0  0
  2  1  1  0
  3  2  2  0
  4  2  1  0
  5  4  1  0
  6  5  2  0
  7  6  1  0
  8  7  2  0
  9  8  1  0
 10  9  1  0
 11  5  1  0
 11  9  2  0
M  END
