
     RDKit          3D

 22 25  0  0  0  0  0  0  0  0999 V2000
    7.2670   -0.5630   20.6400 N   0  0  0  0  0  0  0  0  0  0  0  0
   12.4250   -0.8110   22.4310 C   0  0  0  0  0  0  0  0  0  0  0  0
    9.5610    1.0480   24.7310 O   0  0  0  0  0  0  0  0  0  0  0  0
   13.6620   -1.6440   21.5360 Cl  0  0  0  0  0  0  0  0  0  0  0  0
   12.7910    0.1010   23.3960 C   0  0  0  0  0  0  0  0  0  0  0  0
    7.4990    0.0050   18.2920 N   0  0  0  0  0  0  0  0  0  0  0  0
    8.9030    0.9560   20.9950 O   0  0  0  0  0  0  0  0  0  0  0  0
   11.8080    0.7090   24.1600 C   0  0  0  0  0  0  0  0  0  0  0  0
    6.6990    0.6830   17.3830 N   0  0  0  0  0  0  0  0  0  0  0  0
   10.4720    0.4030   23.9290 C   0  0  0  0  0  0  0  0  0  0  0  0
    5.6810    0.6890   19.3340 N   0  0  0  0  0  0  0  0  0  0  0  0
    8.1990    1.1030   24.2340 C   0  0  0  0  0  0  0  0  0  0  0  0
    7.7080   -0.2470   23.7730 C   0  0  0  0  0  0  0  0  0  0  0  0
    8.6270   -0.7820   22.6570 C   0  0  1  0  0  0  0  0  0  0  0  0
    8.2980   -0.0460   21.3560 C   0  0  0  0  0  0  0  0  0  0  0  0
    6.8600    0.0060   19.4490 C   0  0  0  0  0  0  0  0  0  0  0  0
    5.6340    1.0720   18.0220 C   0  0  0  0  0  0  0  0  0  0  0  0
    4.7650    1.0480   20.4320 C   0  0  1  0  0  0  0  0  0  0  0  0
    5.2610    2.0230   21.4410 C   0  0  0  0  0  0  0  0  0  0  0  0
    4.2070    2.4260   20.4630 C   0  0  0  0  0  0  0  0  0  0  0  0
   10.0950   -0.5100   22.9380 C   0  0  0  0  0  0  0  0  0  0  0  0
   11.1010   -1.1230   22.1910 C   0  0  0  0  0  0  0  0  0  0  0  0
  4  2  1  0
  5  2  2  0
  8  5  1  0
  9  6  1  0
 10  3  1  0
 10  8  2  0
 12  3  1  0
 13 12  1  0
 14 13  1  0
 15  7  2  0
 15  1  1  0
 14 15  1  6
 16 11  1  0
 16  6  2  0
 16  1  1  0
 17 11  1  0
 17  9  2  0
 18 11  1  6
 19 18  1  0
 20 19  1  0
 20 18  1  0
 21 14  1  0
 21 10  1  0
 22 21  2  0
 22  2  1  0
M  END
