
     RDKit          3D

 34 36  0  0  0  0  0  0  0  0999 V2000
   10.5110    6.0290   27.8410 C   0  0  0  0  0  0  0  0  0  0  0  0
   10.4460    5.2480   26.6410 O   0  0  0  0  0  0  0  0  0  0  0  0
   10.0530    5.8750   25.4900 C   0  0  0  0  0  0  0  0  0  0  0  0
    9.8140    7.2370   25.3640 C   0  0  0  0  0  0  0  0  0  0  0  0
    9.4030    7.7690   24.1460 C   0  0  0  0  0  0  0  0  0  0  0  0
    9.2700    6.9640   23.0210 C   0  0  0  0  0  0  0  0  0  0  0  0
    9.5140    5.6030   23.1510 C   0  0  0  0  0  0  0  0  0  0  0  0
    9.4120    4.5930   22.2120 N   0  0  0  0  0  0  0  0  0  0  0  0
    9.7330    3.3940   22.8200 C   0  0  0  0  0  0  0  0  0  0  0  0
   10.0590    3.6250   24.1390 C   0  0  0  0  0  0  0  0  0  0  0  0
    9.9230    5.0370   24.3710 C   0  0  0  0  0  0  0  0  0  0  0  0
    9.7160    2.1600   22.0120 C   0  0  0  0  0  0  0  0  0  0  0  0
    9.4110    2.1920   20.8190 O   0  0  0  0  0  0  0  0  0  0  0  0
   10.0300    1.0300   22.6510 N   0  0  0  0  0  0  0  0  0  0  0  0
   10.0620   -0.2490   21.9630 C   0  0  1  0  0  0  0  0  0  0  0  0
   10.7440   -1.3150   22.8260 C   0  0  0  0  0  0  0  0  0  0  0  0
   12.2420   -1.1120   23.0310 C   0  0  2  0  0  0  0  0  0  0  0  0
   12.9990   -1.3870   21.7480 C   0  0  0  0  0  0  0  0  0  0  0  0
   12.7610   -1.9960   24.1570 C   0  0  0  0  0  0  0  0  0  0  0  0
    8.6360   -0.6750   21.6250 C   0  0  0  0  0  0  0  0  0  0  0  0
    7.7280   -0.5340   22.4460 O   0  0  0  0  0  0  0  0  0  0  0  0
    8.4460   -1.1840   20.4040 N   0  0  0  0  0  0  0  0  0  0  0  0
    7.1770   -1.7850   20.0050 C   0  0  1  0  0  0  0  0  0  0  0  0
    6.6520   -1.1310   18.7250 C   0  0  0  0  0  0  0  0  0  0  0  0
    6.1230    0.2820   19.0270 C   0  0  2  0  0  0  0  0  0  0  0  0
    4.9040    0.3340   19.9810 C   0  0  0  0  0  0  0  0  0  0  0  0
    4.0930    1.5170   19.4810 C   0  0  0  0  0  0  0  0  0  0  0  0
    4.4680    1.6020   18.0780 N   0  0  0  0  0  0  0  0  0  0  0  0
    5.6210    0.9950   17.7850 C   0  0  0  0  0  0  0  0  0  0  0  0
    6.1940    1.0360   16.7030 O   0  0  0  0  0  0  0  0  0  0  0  0
    7.2970   -3.3120   19.9230 C   0  0  0  0  0  0  0  0  0  0  0  0
    6.0600   -3.8970   19.4990 O   0  0  0  0  0  0  0  0  0  0  0  0
    7.6790   -3.8960   21.2840 C   0  0  0  0  0  0  0  0  0  0  0  0
    7.7640   -5.3160   21.2860 O   0  0  0  0  0  0  0  0  0  0  0  0
  2  1  1  0
  3  2  1  0
  4  3  2  0
  5  4  1  0
  6  5  2  0
  7  6  1  0
  8  7  1  0
  9  8  1  0
 10  9  2  0
 11 10  1  0
 11  7  2  0
 11  3  1  0
 12  9  1  0
 13 12  2  0
 14 12  1  0
 15 14  1  0
 15 16  1  1
 17 16  1  0
 17 18  1  6
 19 17  1  0
 20 15  1  0
 21 20  2  0
 22 20  1  0
 23 22  1  0
 23 24  1  6
 25 24  1  6
 26 25  1  0
 27 26  1  0
 28 27  1  0
 29 28  1  0
 29 25  1  0
 30 29  2  0
 31 23  1  0
 32 31  2  0
 33 31  1  0
 34 33  1  0
M  END
$$$$
