
     RDKit          3D

 28 29  0  0  0  0  0  0  0  0999 V2000
    7.9890    1.7500   22.9390 N   0  0  0  0  0  0  0  0  0  0  0  0
   10.2290    1.9030   23.9260 C   0  0  0  0  0  0  0  0  0  0  0  0
    9.0580    1.3490   20.9850 O   0  0  0  0  0  0  0  0  0  0  0  0
    8.9970    2.6510   23.4890 C   0  0  0  0  0  0  0  0  0  0  0  0
    7.4900   -1.3410   21.7660 N   0  0  0  0  0  0  0  0  0  0  0  0
    5.5750   -2.2600   20.9960 O   0  0  0  0  0  0  0  0  0  0  0  0
    8.1510    1.1150   21.7770 C   0  0  0  0  0  0  0  0  0  0  0  0
    6.5750    0.2070   17.6970 N   0  0  0  0  0  0  0  0  0  0  0  0
    7.0800    0.0600   21.4570 C   0  0  1  0  0  0  0  0  0  0  0  0
    6.7000   -2.4080   21.4410 C   0  0  0  0  0  0  0  0  0  0  0  0
    7.2660   -3.7960   21.6050 C   0  0  0  0  0  0  0  0  0  0  0  0
    7.1530   -4.5710   20.3290 C   0  0  0  0  0  0  0  0  0  0  0  0
    8.7140   -1.5030   22.5030 C   0  0  0  0  0  0  0  0  0  0  0  0
    8.6960   -1.5570   23.8950 C   0  0  0  0  0  0  0  0  0  0  0  0
    9.8800   -1.6880   24.6030 C   0  0  0  0  0  0  0  0  0  0  0  0
   11.1070   -1.7630   23.9490 C   0  0  0  0  0  0  0  0  0  0  0  0
   11.1120   -1.7280   22.5560 C   0  0  0  0  0  0  0  0  0  0  0  0
    9.9350   -1.6010   21.8370 C   0  0  0  0  0  0  0  0  0  0  0  0
   12.4110   -1.8170   24.7590 C   0  0  0  0  0  0  0  0  0  0  0  0
   12.6150   -0.4870   25.4880 C   0  0  0  0  0  0  0  0  0  0  0  0
   12.3610   -2.9430   25.8040 C   0  0  0  0  0  0  0  0  0  0  0  0
   13.6390   -2.0590   23.8770 C   0  0  0  0  0  0  0  0  0  0  0  0
    6.4340    0.3090   20.1020 C   0  0  0  0  0  0  0  0  0  0  0  0
    7.0300   -0.1040   18.9160 C   0  0  0  0  0  0  0  0  0  0  0  0
    5.4660    0.9530   17.6300 C   0  0  0  0  0  0  0  0  0  0  0  0
    4.7900    1.4100   18.7420 C   0  0  0  0  0  0  0  0  0  0  0  0
    5.2830    1.0770   19.9890 C   0  0  0  0  0  0  0  0  0  0  0  0
    8.1320   -3.8260   18.9980 S   0  0  0  0  0  0  0  0  0  0  0  0
  4  2  1  0
  4  1  1  0
  7  3  2  0
  7  1  1  0
  9  7  1  6
  9  5  1  0
 10  6  2  0
 10  5  1  0
 11 10  1  0
 12 11  1  0
 13  5  1  0
 14 13  2  0
 15 14  1  0
 16 15  2  0
 17 16  1  0
 18 13  1  0
 18 17  2  0
 19 16  1  0
 19 20  1  0
 21 19  1  0
 22 19  1  0
 23  9  1  0
 24 23  1  0
 24  8  2  0
 25  8  1  0
 26 25  2  0
 27 26  1  0
 27 23  2  0
 12 28  1  0
M  END
