
     RDKit          3D

 11 11  0  0  0  0  0  0  0  0999 V2000
   29.2110   49.3590   -6.8600 O   0  0  0  0  0  0  0  0  0  0  0  0
   28.8080   50.3570   -7.4650 C   0  0  0  0  0  0  0  0  0  0  0  0
   28.1960   50.3280   -8.6420 N   0  0  0  0  0  0  0  0  0  0  0  0
   29.0070   51.6770   -6.8360 C   0  0  1  0  0  0  0  0  0  0  0  0
   28.8140   52.9060   -7.4350 C   0  0  0  0  0  0  0  0  0  0  0  0
   29.0400   53.8370   -6.4930 N   0  0  0  0  0  0  0  0  0  0  0  0
   29.3660   53.2930   -5.2960 N   0  0  0  0  0  0  0  0  0  0  0  0
   29.3590   51.9900   -5.5140 C   0  0  0  0  0  0  0  0  0  0  0  0
   28.9730   55.2880   -6.6270 C   0  0  0  0  0  0  0  0  0  0  0  0
   28.7920   55.6900   -8.0700 C   0  0  0  0  0  0  0  0  0  0  0  0
   27.5240   55.2630   -8.5670 O   0  0  0  0  0  0  0  0  0  0  0  0
  2  1  1  0
  3  2  1  0
  4  2  1  1
  5  4  1  0
  6  5  1  0
  7  6  1  0
  8  4  1  0
  8  7  1  0
  9  6  1  0
 10  9  1  0
 11 10  1  0
M  END
$$$$
