
     RDKit          3D

 17 18  0  0  0  0  0  0  0  0999 V2000
    6.5830    0.5270   17.6840 N   0  0  0  0  0  0  0  0  0  0  0  0
    4.7520    1.0160   21.5740 C   0  0  0  0  0  0  0  0  0  0  0  0
    9.2910    0.6120   20.8840 O   0  0  0  0  0  0  0  0  0  0  0  0
    5.3840    0.8070   20.2190 C   0  0  0  0  0  0  0  0  0  0  0  0
    7.2760   -0.4110   21.1880 N   0  0  0  0  0  0  0  0  0  0  0  0
    4.7890    1.3210   19.0750 C   0  0  0  0  0  0  0  0  0  0  0  0
   10.4530   -0.5350   23.0170 N   0  0  0  0  0  0  0  0  0  0  0  0
    5.4120    1.1640   17.8490 C   0  0  0  0  0  0  0  0  0  0  0  0
    7.1580    0.0140   18.7780 C   0  0  0  0  0  0  0  0  0  0  0  0
    6.6050    0.1240   20.0590 C   0  0  0  0  0  0  0  0  0  0  0  0
    8.5570   -0.1400   21.5200 C   0  0  2  0  0  0  0  0  0  0  0  0
    9.0270   -0.7760   22.8150 C   0  0  0  0  0  0  0  0  0  0  0  0
   11.2490   -1.4700   22.2040 C   0  0  0  0  0  0  0  0  0  0  0  0
   12.7250   -1.1800   22.3290 C   0  0  0  0  0  0  0  0  0  0  0  0
   13.1720   -1.2450   23.7850 C   0  0  0  0  0  0  0  0  0  0  0  0
   12.2960   -0.3720   24.6590 C   0  0  0  0  0  0  0  0  0  0  0  0
   10.8250   -0.6730   24.4380 C   0  0  0  0  0  0  0  0  0  0  0  0
  4  2  1  0
  6  4  1  0
  8  6  1  0
  8  1  1  0
  9  1  1  0
 10  4  1  0
 10  9  1  0
 10  5  1  0
 11  5  1  0
 11  3  1  1
 12 11  1  0
 12  7  1  0
 13  7  1  0
 14 13  1  0
 15 14  1  0
 16 15  1  0
 17  7  1  0
 17 16  1  0
M  END
$$$$
