
     RDKit          3D

 34 36  0  0  0  0  0  0  0  0999 V2000
    9.1730    1.3670   21.0920 O   0  0  0  0  0  0  0  0  0  0  0  0
    8.1480    1.2290   21.7560 C   0  0  0  0  0  0  0  0  0  0  0  0
    7.1560    0.0960   21.4510 C   0  0  1  0  0  0  0  0  0  0  0  0
    6.5130    0.2660   20.0870 C   0  0  0  0  0  0  0  0  0  0  0  0
    5.3070    0.9390   19.9490 C   0  0  0  0  0  0  0  0  0  0  0  0
    4.8490    1.2900   18.6920 C   0  0  0  0  0  0  0  0  0  0  0  0
    5.6130    0.9380   17.5970 C   0  0  0  0  0  0  0  0  0  0  0  0
    6.7640    0.2620   17.6890 N   0  0  0  0  0  0  0  0  0  0  0  0
    7.1830   -0.0650   18.9180 C   0  0  0  0  0  0  0  0  0  0  0  0
    7.6410   -1.2550   21.8050 N   0  0  0  0  0  0  0  0  0  0  0  0
    8.8500   -1.3320   22.5220 C   0  0  0  0  0  0  0  0  0  0  0  0
    8.8620   -1.2200   23.8550 N   0  0  0  0  0  0  0  0  0  0  0  0
   10.1320   -1.2360   24.3540 N   0  0  0  0  0  0  0  0  0  0  0  0
   10.9130   -1.3760   23.2850 C   0  0  0  0  0  0  0  0  0  0  0  0
   12.4210   -1.4530   23.4510 C   0  0  2  0  0  0  0  0  0  0  0  0
   13.0800   -1.7120   22.0930 C   0  0  0  0  0  0  0  0  0  0  0  0
   12.7850   -2.5810   24.4190 C   0  0  0  0  0  0  0  0  0  0  0  0
   12.9520   -0.1430   24.0330 C   0  0  0  0  0  0  0  0  0  0  0  0
   10.1510   -1.4430   22.1030 C   0  0  0  0  0  0  0  0  0  0  0  0
    6.8930   -2.4000   21.5290 C   0  0  0  0  0  0  0  0  0  0  0  0
    5.7230   -2.2740   21.2170 O   0  0  0  0  0  0  0  0  0  0  0  0
    7.5600   -3.7440   21.5730 C   0  0  0  0  0  0  0  0  0  0  0  0
    7.3390   -4.4730   20.2880 C   0  0  0  0  0  0  0  0  0  0  0  0
    7.7530    2.0640   22.7410 N   0  0  0  0  0  0  0  0  0  0  0  0
    8.3620    3.3290   22.9760 C   0  0  0  0  0  0  0  0  0  0  0  0
    7.7250    4.4820   22.5010 C   0  0  0  0  0  0  0  0  0  0  0  0
    6.3590    4.4240   21.8640 C   0  0  0  0  0  0  0  0  0  0  0  0
    8.3670    5.7040   22.6840 C   0  0  0  0  0  0  0  0  0  0  0  0
    9.5770    5.7860   23.3490 C   0  0  0  0  0  0  0  0  0  0  0  0
   10.1840    4.6380   23.8300 C   0  0  0  0  0  0  0  0  0  0  0  0
    9.5960    3.3890   23.6450 C   0  0  0  0  0  0  0  0  0  0  0  0
   10.3050    2.1480   24.1440 C   0  0  0  0  0  0  0  0  0  0  0  0
    9.6400    1.4270   25.3140 C   0  0  0  0  0  0  0  0  0  0  0  0
    8.3240   -3.7800   18.9350 S   0  0  0  0  0  0  0  0  0  0  0  0
  2  1  2  0
  3  2  1  6
  4  3  1  0
  5  4  2  0
  6  5  1  0
  7  6  2  0
  8  7  1  0
  9  8  2  0
  9  4  1  0
 10  3  1  0
 11 10  1  0
 12 11  1  0
 13 12  1  0
 14 13  2  0
 15 14  1  0
 15 16  1  6
 17 15  1  0
 18 15  1  0
 19 11  2  0
 19 14  1  0
 20 10  1  0
 21 20  2  0
 22 20  1  0
 23 22  1  0
 24  2  1  0
 25 24  1  0
 26 25  2  0
 27 26  1  0
 28 26  1  0
 29 28  2  0
 30 29  1  0
 31 30  2  0
 31 25  1  0
 32 31  1  0
 33 32  1  0
 23 34  1  0
M  END
