
     RDKit          3D

  4  4  0  0  0  0  0  0  0  0999 V2000
    2.9030    3.4770  -10.5780 N   0  0  0  0  0  0  0  0  0  0  0  0
    4.0600    2.6730  -10.5350 C   0  0  1  0  0  0  0  0  0  0  0  0
    3.9910    1.2170  -11.0270 C   0  0  0  0  0  0  0  0  0  0  0  0
    4.7850    2.2680  -11.8190 C   0  0  0  0  0  0  0  0  0  0  0  0
  2  1  1  6
  3  2  1  0
  4  3  1  0
  4  2  1  0
M  END
