
     RDKit          3D

 17 18  0  0  0  0  0  0  0  0999 V2000
   24.2970  -22.1880   18.3110 O   0  0  0  0  0  0  0  0  0  0  0  0
   23.6180  -21.9430   19.2890 C   0  0  0  0  0  0  0  0  0  0  0  0
   23.8490  -20.8800   20.1340 O   0  0  0  0  0  0  0  0  0  0  0  0
   24.9500  -20.0480   19.8580 C   0  0  0  0  0  0  0  0  0  0  0  0
   22.5160  -22.6460   19.7100 N   0  0  0  0  0  0  0  0  0  0  0  0
   22.0640  -23.7750   19.0550 C   0  0  0  0  0  0  0  0  0  0  0  0
   21.5630  -23.8260   17.7460 C   0  0  0  0  0  0  0  0  0  0  0  0
   21.1420  -25.1020   17.3380 N   0  0  0  0  0  0  0  0  0  0  0  0
   21.3190  -25.9600   18.3150 C   0  0  0  0  0  0  0  0  0  0  0  0
   20.9300  -27.3820   18.2190 C   0  0  0  0  0  0  0  0  0  0  0  0
   22.0130  -25.3220   19.7890 S   0  0  0  0  0  0  0  0  0  0  0  0
   21.3740  -22.7260   16.7960 C   0  0  0  0  0  0  0  0  0  0  0  0
   21.6750  -22.9160   15.4380 C   0  0  0  0  0  0  0  0  0  0  0  0
   21.4110  -21.8900   14.5220 C   0  0  0  0  0  0  0  0  0  0  0  0
   20.8550  -20.6800   14.9560 C   0  0  0  0  0  0  0  0  0  0  0  0
   20.5680  -20.4910   16.3090 C   0  0  0  0  0  0  0  0  0  0  0  0
   20.8290  -21.5120   17.2300 C   0  0  0  0  0  0  0  0  0  0  0  0
  2  1  2  0
  3  2  1  0
  4  3  1  0
  5  2  1  0
  6  5  1  0
  7  6  2  0
  8  7  1  0
  9  8  2  0
 10  9  1  0
 11  9  1  0
 11  6  1  0
 12  7  1  0
 13 12  2  0
 14 13  1  0
 15 14  2  0
 16 15  1  0
 17 12  1  0
 17 16  2  0
M  END
