
     RDKit          3D

 12 13  0  0  0  0  0  0  0  0999 V2000
   27.8350   55.5760   -8.9370 N   0  0  0  0  0  0  0  0  0  0  0  0
   28.3210   54.5020   -8.0900 C   0  0  0  0  0  0  0  0  0  0  0  0
   28.3230   53.1200   -8.5800 N   0  0  0  0  0  0  0  0  0  0  0  0
   28.8210   52.0210   -7.7020 C   0  0  0  0  0  0  0  0  0  0  0  0
   28.8270   50.6930   -8.1810 C   0  0  0  0  0  0  0  0  0  0  0  0
   29.2940   49.6630   -7.3620 C   0  0  0  0  0  0  0  0  0  0  0  0
   29.7590   49.9470   -6.0710 C   0  0  0  0  0  0  0  0  0  0  0  0
   29.7490   51.2580   -5.6020 C   0  0  0  0  0  0  0  0  0  0  0  0
   29.2780   52.3010   -6.4320 C   0  0  0  0  0  0  0  0  0  0  0  0
   29.2840   53.7420   -5.9130 C   0  0  0  0  0  0  0  0  0  0  0  0
   29.6750   53.9710   -4.8130 O   0  0  0  0  0  0  0  0  0  0  0  0
   28.8010   54.8010   -6.7570 N   0  0  0  0  0  0  0  0  0  0  0  0
  2  1  1  0
  3  2  2  0
  4  3  1  0
  5  4  2  0
  6  5  1  0
  7  6  2  0
  8  7  1  0
  9  8  2  0
  9  4  1  0
 10  9  1  0
 11 10  2  0
 12 10  1  0
 12  2  1  0
M  END
