
     RDKit          3D

 27 28  0  0  0  0  0  0  0  0999 V2000
    9.0370    1.2760   21.0830 O   0  0  0  0  0  0  0  0  0  0  0  0
    8.0790    1.0500   21.8190 C   0  0  0  0  0  0  0  0  0  0  0  0
    7.8460    1.7020   22.9520 N   0  0  0  0  0  0  0  0  0  0  0  0
    8.7810    2.6770   23.4820 C   0  0  0  0  0  0  0  0  0  0  0  0
    7.0270   -0.0140   21.4670 C   0  0  1  0  0  0  0  0  0  0  0  0
    6.3830    0.2500   20.1160 C   0  0  1  0  0  0  0  0  0  0  0  0
    5.2530    1.0480   20.0170 C   0  0  0  0  0  0  0  0  0  0  0  0
    4.8210    1.4890   18.7820 C   0  0  0  0  0  0  0  0  0  0  0  0
    5.5420    1.1100   17.6640 C   0  0  0  0  0  0  0  0  0  0  0  0
    6.6160    0.3170   17.7170 N   0  0  0  0  0  0  0  0  0  0  0  0
    7.0020   -0.1090   18.9250 C   0  0  0  0  0  0  0  0  0  0  0  0
    7.5070   -1.3840   21.7830 N   0  0  0  0  0  0  0  0  0  0  0  0
    6.6980   -2.4420   21.4780 C   0  0  0  0  0  0  0  0  0  0  0  0
    5.5320   -2.2860   21.1650 O   0  0  0  0  0  0  0  0  0  0  0  0
    7.2910   -3.8250   21.4960 C   0  0  0  0  0  0  0  0  0  0  0  0
    7.1550   -4.4840   20.1450 C   0  0  0  0  0  0  0  0  0  0  0  0
    8.7640   -1.5640   22.4470 C   0  0  0  0  0  0  0  0  0  0  0  0
    8.8220   -1.6140   23.8380 C   0  0  0  0  0  0  0  0  0  0  0  0
   10.0430   -1.7440   24.4790 C   0  0  0  0  0  0  0  0  0  0  0  0
   11.2310   -1.8200   23.7560 C   0  0  0  0  0  0  0  0  0  0  0  0
   12.5780   -1.8820   24.4890 C   0  0  1  0  0  0  0  0  0  0  0  0
   12.6180   -3.0570   25.4850 C   0  0  0  0  0  0  0  0  0  0  0  0
   13.7570   -2.0440   23.5280 C   0  0  0  0  0  0  0  0  0  0  0  0
   12.7870   -0.5760   25.2510 C   0  0  0  0  0  0  0  0  0  0  0  0
   11.1580   -1.7840   22.3650 C   0  0  0  0  0  0  0  0  0  0  0  0
    9.9440   -1.6590   21.7140 C   0  0  0  0  0  0  0  0  0  0  0  0
    8.3030   -3.7820   18.9250 S   0  0  0  0  0  0  0  0  0  0  0  0
  2  1  1  0
  3  2  1  0
  4  3  1  0
  5  2  1  6
  6  5  1  0
  6  7  1  6
  8  7  1  0
  9  8  1  0
 10  9  1  0
 11 10  1  0
 11  6  1  0
 12  5  1  0
 13 12  1  0
 14 13  1  0
 15 13  1  0
 16 15  1  0
 17 12  1  0
 18 17  1  0
 19 18  1  0
 20 19  1  0
 21 20  1  0
 21 22  1  1
 23 21  1  0
 24 21  1  0
 25 20  1  0
 26 17  1  0
 26 25  1  0
 16 27  1  0
M  END
$$$$
