
     RDKit          3D

 26 28  0  0  0  0  0  0  0  0999 V2000
    8.4220   -0.2480   21.9350 N   0  0  0  0  0  0  0  0  0  0  0  0
    4.8210   -0.1190   21.5620 C   0  0  0  0  0  0  0  0  0  0  0  0
    8.6760   -0.2610   24.3910 C   0  0  0  0  0  0  0  0  0  0  0  0
   11.2720   -0.5050   22.4720 C   0  0  0  0  0  0  0  0  0  0  0  0
    8.2700    1.5840   20.6400 O   0  0  0  0  0  0  0  0  0  0  0  0
    3.5550    2.1550   20.5410 C   0  0  0  0  0  0  0  0  0  0  0  0
    9.0090    0.4380   23.0820 C   0  0  1  0  0  0  0  0  0  0  0  0
    6.1200    1.0060   18.2420 C   0  0  0  0  0  0  0  0  0  0  0  0
   13.2870    0.8090   22.6850 C   0  0  0  0  0  0  0  0  0  0  0  0
    6.1530   -0.1210   19.2670 C   0  0  1  0  0  0  0  0  0  0  0  0
    7.5790   -0.5010   19.6860 C   0  0  0  0  0  0  0  0  0  0  0  0
    3.8150    0.5260   22.2420 C   0  0  0  0  0  0  0  0  0  0  0  0
   10.5150    0.5560   22.9610 C   0  0  0  0  0  0  0  0  0  0  0  0
   12.6410   -0.3580   22.3330 C   0  0  0  0  0  0  0  0  0  0  0  0
    3.1680    1.6400   21.7670 C   0  0  0  0  0  0  0  0  0  0  0  0
    3.4240    0.0140   23.4410 F   0  0  0  0  0  0  0  0  0  0  0  0
    5.1970    0.3800   20.3170 C   0  0  0  0  0  0  0  0  0  0  0  0
   11.1560    1.7390   23.3070 C   0  0  0  0  0  0  0  0  0  0  0  0
    6.6470   -1.4520   24.5460 C   0  0  0  0  0  0  0  0  0  0  0  0
    5.1570    1.8830   18.6150 N   0  0  0  0  0  0  0  0  0  0  0  0
    7.2900   -0.1910   24.6510 O   0  0  0  0  0  0  0  0  0  0  0  0
    6.8690    1.1250   17.2780 O   0  0  0  0  0  0  0  0  0  0  0  0
    4.5740    1.5270   19.8310 C   0  0  0  0  0  0  0  0  0  0  0  0
    8.1110    0.3770   20.7970 C   0  0  0  0  0  0  0  0  0  0  0  0
   13.6520   -1.7770   21.5730 Br  0  0  0  0  0  0  0  0  0  0  0  0
   12.5290    1.8670   23.1670 C   0  0  0  0  0  0  0  0  0  0  0  0
  7  3  1  1
  7  1  1  0
 10  8  1  0
 10 11  1  1
 12  2  2  0
 13  7  1  0
 13  4  2  0
 14  9  2  0
 14  4  1  0
 15  6  2  0
 15 12  1  0
 16 12  1  0
 17  2  1  0
 17 10  1  0
 18 13  1  0
 20  8  1  0
 21 19  1  0
 21  3  1  0
 22  8  2  0
 23 20  1  0
 23 17  2  0
 23  6  1  0
 24 11  1  0
 24  5  2  0
 24  1  1  0
 25 14  1  0
 26 18  2  0
 26  9  1  0
M  END
