
     RDKit          3D

 13 13  0  0  0  0  0  0  0  0999 V2000
    0.5550    6.6170   -4.9340 N   0  0  0  0  0  0  0  0  0  0  0  0
    2.6250   11.5520   -6.1650 N   0  0  0  0  0  0  0  0  0  0  0  0
    3.2710    5.9210   -0.3180 O   0  0  0  0  0  0  0  0  0  0  0  0
    0.5260   11.4550   -5.1590 O   0  0  0  0  0  0  0  0  0  0  0  0
    1.5760    7.3160   -4.1640 C   0  0  2  0  0  0  0  0  0  0  0  0
    1.6930    6.7780   -2.7320 C   0  0  0  0  0  0  0  0  0  0  0  0
    2.8320    6.0940   -2.6640 C   0  0  0  0  0  0  0  0  0  0  0  0
    3.4040    5.3770   -1.4490 C   0  0  0  0  0  0  0  0  0  0  0  0
    1.3300    8.8220   -4.1920 C   0  0  0  0  0  0  0  0  0  0  0  0
    1.7810    9.4150   -5.5200 C   0  0  2  0  0  0  0  0  0  0  0  0
    3.2670    9.3110   -5.6420 C   0  0  0  0  0  0  0  0  0  0  0  0
    3.6330   10.5220   -6.5280 C   0  0  0  0  0  0  0  0  0  0  0  0
    1.5090   10.9150   -5.5510 C   0  0  0  0  0  0  0  0  0  0  0  0
  5  1  1  1
  6  5  1  0
  7  6  1  0
  8  7  1  0
  8  3  1  0
  9  5  1  0
 10  9  1  1
 11 10  1  0
 12 11  1  0
 12  2  1  0
 13 10  1  0
 13  2  1  0
 13  4  1  0
M  END
$$$$
