
     RDKit          3D

 29 31  0  0  0  0  0  0  0  0999 V2000
    8.0010    2.3540   33.5100 O   0  0  0  0  0  0  0  0  0  0  0  0
    8.2100    1.9240   32.3850 C   0  0  0  0  0  0  0  0  0  0  0  0
    9.2530    0.9870   32.1690 N   0  0  0  0  0  0  0  0  0  0  0  0
   10.0070    0.5440   33.3400 C   0  0  0  0  0  0  0  0  0  0  0  0
    9.5180    0.4480   30.9470 C   0  0  0  0  0  0  0  0  0  0  0  0
    7.4060    2.2790   31.2030 C   0  0  0  0  0  0  0  0  0  0  0  0
    7.6530    1.6770   29.9540 C   0  0  0  0  0  0  0  0  0  0  0  0
    6.8540    2.0100   28.8580 C   0  0  0  0  0  0  0  0  0  0  0  0
    5.8360    2.9360   29.0000 C   0  0  0  0  0  0  0  0  0  0  0  0
    5.6080    3.5440   30.2200 C   0  0  0  0  0  0  0  0  0  0  0  0
    6.3820    3.2200   31.3220 C   0  0  0  0  0  0  0  0  0  0  0  0
    8.7630    0.7150   29.8600 C   0  0  0  0  0  0  0  0  0  0  0  0
    9.0500    0.0670   28.6700 N   0  0  0  0  0  0  0  0  0  0  0  0
    8.2950   -1.0130   28.2060 C   0  0  0  0  0  0  0  0  0  0  0  0
    7.4650   -1.5640   28.9180 O   0  0  0  0  0  0  0  0  0  0  0  0
    8.5760   -1.4650   26.9500 N   0  0  0  0  0  0  0  0  0  0  0  0
    7.8130   -2.5560   26.3730 C   0  0  0  0  0  0  0  0  0  0  0  0
    8.5670   -3.8370   26.4230 C   0  0  0  0  0  0  0  0  0  0  0  0
    8.4860   -4.5500   27.5800 O   0  0  0  0  0  0  0  0  0  0  0  0
    9.2580   -5.6710   27.3950 C   0  0  0  0  0  0  0  0  0  0  0  0
    9.8030   -5.6660   26.1840 C   0  0  0  0  0  0  0  0  0  0  0  0
    9.3570   -4.4750   25.5470 C   0  0  0  0  0  0  0  0  0  0  0  0
    9.6610   -0.9120   26.1300 C   0  0  0  0  0  0  0  0  0  0  0  0
    9.1890    0.0250   25.0270 C   0  0  0  0  0  0  0  0  0  0  0  0
   10.3420    0.5620   24.2140 C   0  0  0  0  0  0  0  0  0  0  0  0
   11.0730   -0.5370   23.6670 O   0  0  0  0  0  0  0  0  0  0  0  0
   12.1690   -0.2530   22.8050 C   0  0  1  0  0  0  0  0  0  0  0  0
   13.3130    0.4120   23.5000 C   0  0  0  0  0  0  0  0  0  0  0  0
   12.5800   -1.5150   22.1010 C   0  0  0  0  0  0  0  0  0  0  0  0
  2  1  2  0
  3  2  1  0
  4  3  1  0
  5  3  1  0
  6  2  1  0
  7  6  2  0
  8  7  1  0
  9  8  2  0
 10  9  1  0
 11 10  2  0
 11  6  1  0
 12  7  1  0
 12  5  2  0
 13 12  1  0
 14 13  1  0
 15 14  2  0
 16 14  1  0
 17 16  1  0
 18 17  1  0
 19 18  1  0
 20 19  1  0
 21 20  2  0
 22 21  1  0
 22 18  2  0
 23 16  1  0
 24 23  1  0
 25 24  1  0
 26 25  1  0
 27 26  1  0
 27 28  1  1
 29 27  1  0
M  END
