
     RDKit          3D

 29 30  0  0  0  0  0  0  0  0999 V2000
    7.6240   -1.1100   21.6570 N   0  0  0  0  0  0  0  0  0  0  0  0
    7.0740   -4.1000   19.8590 C   0  0  0  0  0  0  0  0  0  0  0  0
    5.6020   -2.0870   21.4590 O   0  0  0  0  0  0  0  0  0  0  0  0
    7.4460   -3.5660   21.1890 C   0  0  0  0  0  0  0  0  0  0  0  0
    8.0280    1.9690   22.8370 N   0  0  0  0  0  0  0  0  0  0  0  0
    9.2120    1.6170   20.9250 O   0  0  0  0  0  0  0  0  0  0  0  0
    6.8110   -2.2270   21.4350 C   0  0  0  0  0  0  0  0  0  0  0  0
    6.7610    0.1910   17.5180 N   0  0  0  0  0  0  0  0  0  0  0  0
    9.9130   -1.9120   24.2500 O   0  0  0  0  0  0  0  0  0  0  0  0
    7.2440    0.2760   21.2880 C   0  0  1  0  0  0  0  0  0  0  0  0
    8.6260   -1.9750   23.6640 N   0  0  0  0  0  0  0  0  0  0  0  0
    8.2660    1.3630   21.6630 C   0  0  0  0  0  0  0  0  0  0  0  0
    8.8490    3.0350   23.4640 C   0  0  0  0  0  0  0  0  0  0  0  0
    8.6480    2.9240   24.9690 C   0  0  0  0  0  0  0  0  0  0  0  0
    8.3430    4.3830   22.9720 C   0  0  0  0  0  0  0  0  0  0  0  0
   10.3290    2.8820   23.1380 C   0  0  0  0  0  0  0  0  0  0  0  0
    6.6450    0.4920   19.9080 C   0  0  0  0  0  0  0  0  0  0  0  0
    7.2280   -0.0200   18.7560 C   0  0  0  0  0  0  0  0  0  0  0  0
    5.6630    0.9500   17.3960 C   0  0  0  0  0  0  0  0  0  0  0  0
    4.9970    1.4960   18.4760 C   0  0  0  0  0  0  0  0  0  0  0  0
    5.4980    1.2560   19.7440 C   0  0  0  0  0  0  0  0  0  0  0  0
    8.7790   -1.3640   22.4660 C   0  0  0  0  0  0  0  0  0  0  0  0
   10.7460   -1.2920   23.3910 C   0  0  0  0  0  0  0  0  0  0  0  0
   10.1210   -0.9420   22.2590 C   0  0  0  0  0  0  0  0  0  0  0  0
   12.1810   -1.0610   23.8110 C   0  0  0  0  0  0  0  0  0  0  0  0
   13.0480   -0.7970   22.5760 C   0  0  0  0  0  0  0  0  0  0  0  0
   12.2470    0.1440   24.7510 C   0  0  0  0  0  0  0  0  0  0  0  0
   12.7130   -2.2970   24.5430 C   0  0  0  0  0  0  0  0  0  0  0  0
    8.4650   -3.7900   18.8500 S   0  0  0  0  0  0  0  0  0  0  0  0
  4  2  1  0
  7  4  1  0
  7  3  2  0
  7  1  1  0
 10  1  1  0
 11  9  1  0
 10 12  1  6
 12  6  2  0
 12  5  1  0
 13  5  1  0
 13 14  1  0
 15 13  1  0
 16 13  1  0
 17 10  1  0
 18 17  1  0
 18  8  2  0
 19  8  1  0
 20 19  2  0
 21 20  1  0
 21 17  2  0
 22  1  1  0
 22 11  2  0
 23  9  1  0
 24 23  2  0
 24 22  1  0
 25 23  1  0
 25 26  1  0
 27 25  1  0
 28 25  1  0
  2 29  1  0
M  END
