
     RDKit          3D

 20 22  0  0  0  0  0  0  0  0999 V2000
    8.9060   -0.5980   22.2730 N   0  0  0  0  0  0  0  0  0  0  0  0
   12.5630   -1.1770   22.3270 C   0  0  0  0  0  0  0  0  0  0  0  0
    8.3120   -2.7730   22.9020 O   0  0  0  0  0  0  0  0  0  0  0  0
   13.7590   -2.0530   21.4150 Cl  0  0  0  0  0  0  0  0  0  0  0  0
   12.9590   -0.4410   23.4270 C   0  0  0  0  0  0  0  0  0  0  0  0
    6.8600   -1.3210   21.8620 N   0  0  0  0  0  0  0  0  0  0  0  0
    8.8680    1.4410   21.1800 O   0  0  0  0  0  0  0  0  0  0  0  0
   11.9920    0.2110   24.1790 C   0  0  0  0  0  0  0  0  0  0  0  0
    6.5870    0.4420   17.6900 N   0  0  0  0  0  0  0  0  0  0  0  0
   10.6550    0.1370   23.8230 C   0  0  0  0  0  0  0  0  0  0  0  0
   10.2810   -0.5880   22.6950 C   0  0  0  0  0  0  0  0  0  0  0  0
   11.2390   -1.2630   21.9420 C   0  0  0  0  0  0  0  0  0  0  0  0
    8.0420   -1.6930   22.3980 C   0  0  0  0  0  0  0  0  0  0  0  0
    6.8320    0.0780   21.4530 C   0  0  1  0  0  0  0  0  0  0  0  0
    8.2910    0.4580   21.6020 C   0  0  1  0  0  0  0  0  0  0  0  0
    6.2650    0.4000   20.0780 C   0  0  1  0  0  0  0  0  0  0  0  0
    5.1600    1.2270   19.9320 C   0  0  0  0  0  0  0  0  0  0  0  0
    4.7800    1.6680   18.6750 C   0  0  0  0  0  0  0  0  0  0  0  0
    5.5250    1.2530   17.5870 C   0  0  0  0  0  0  0  0  0  0  0  0
    6.9250    0.0260   18.9150 C   0  0  0  0  0  0  0  0  0  0  0  0
  4  2  1  0
  5  2  1  0
  8  5  1  0
 10  8  1  0
 11 10  1  0
 11  1  1  0
 12 11  1  0
 12  2  1  0
 13  6  1  0
 13  3  1  0
 13  1  1  0
 14  6  1  6
 15 14  1  0
 15  7  1  6
 15  1  1  0
 16 14  1  0
 16 17  1  1
 18 17  1  0
 19 18  1  0
 19  9  1  0
 20 16  1  0
 20  9  1  0
M  END
