
     RDKit          3D

 13 14  0  0  0  0  0  0  0  0999 V2000
    9.5580    1.8200   22.2670 C   0  0  0  0  0  0  0  0  0  0  0  0
    9.1730    1.1610   23.6340 C   0  0  1  0  0  0  0  0  0  0  0  0
    7.8480    1.0680   23.7850 C   0  0  0  0  0  0  0  0  0  0  0  0
    7.4560   -0.4410   23.3710 C   0  0  0  0  0  0  0  0  0  0  0  0
    8.8250   -1.1350   23.0350 C   0  0  0  0  0  0  0  0  0  0  0  0
    9.7470   -0.4010   23.7150 C   0  0  1  0  0  0  0  0  0  0  0  0
   11.1740   -0.4880   23.1190 C   0  0  0  0  0  0  0  0  0  0  0  0
   12.1800    0.4340   23.4970 C   0  0  0  0  0  0  0  0  0  0  0  0
   13.4350    0.2230   22.8750 C   0  0  0  0  0  0  0  0  0  0  0  0
   11.5520   -1.4830   22.1960 C   0  0  0  0  0  0  0  0  0  0  0  0
   10.3490    3.0590   22.2720 N   0  0  0  0  0  0  0  0  0  0  0  0
    9.2250    1.3200   21.2130 O   0  0  0  0  0  0  0  0  0  0  0  0
   13.2410   -1.1710   21.8340 S   0  0  0  0  0  0  0  0  0  0  0  0
  2  1  1  6
  3  2  1  0
  4  3  1  0
  5  4  1  0
  6  5  1  0
  6  2  1  0
  6  7  1  6
  8  7  1  0
  9  8  2  0
 10  7  2  0
 11  1  1  0
 12  1  2  0
 13 10  1  0
 13  9  1  0
M  END
