
     RDKit          3D

 20 22  0  0  0  0  0  0  0  0999 V2000
    6.3400    0.3650   20.0990 C   0  0  2  0  0  0  0  0  0  0  0  0
    5.6010    1.2260   17.6100 C   0  0  0  0  0  0  0  0  0  0  0  0
    8.9800   -0.6440   22.2900 N   0  0  0  0  0  0  0  0  0  0  0  0
    6.6610    0.4130   17.7110 N   0  0  0  0  0  0  0  0  0  0  0  0
    4.8570    1.6390   18.7000 C   0  0  0  0  0  0  0  0  0  0  0  0
   13.0330   -0.4980   23.4440 C   0  0  0  0  0  0  0  0  0  0  0  0
    8.9460    1.3980   21.2030 O   0  0  0  0  0  0  0  0  0  0  0  0
   12.6350   -1.2300   22.3410 C   0  0  0  0  0  0  0  0  0  0  0  0
    8.3670    0.4150   21.6230 C   0  0  1  0  0  0  0  0  0  0  0  0
   12.0680    0.1540   24.1980 C   0  0  0  0  0  0  0  0  0  0  0  0
    8.1140   -1.7380   22.4130 C   0  0  0  0  0  0  0  0  0  0  0  0
    6.9320   -1.3610   21.8790 N   0  0  0  0  0  0  0  0  0  0  0  0
    8.3820   -2.8190   22.9150 O   0  0  0  0  0  0  0  0  0  0  0  0
   11.3120   -1.3120   21.9570 C   0  0  0  0  0  0  0  0  0  0  0  0
    6.9060    0.0380   21.4740 C   0  0  2  0  0  0  0  0  0  0  0  0
   10.3550   -0.6380   22.7120 C   0  0  0  0  0  0  0  0  0  0  0  0
    6.9990   -0.0080   18.9360 C   0  0  0  0  0  0  0  0  0  0  0  0
    5.2360    1.1950   19.9560 C   0  0  0  0  0  0  0  0  0  0  0  0
   10.7300    0.0840   23.8420 C   0  0  0  0  0  0  0  0  0  0  0  0
   13.8290   -2.1070   21.4270 Cl  0  0  0  0  0  0  0  0  0  0  0  0
  4  2  1  0
  5  2  1  0
  8  6  1  0
  9  7  1  6
  9  3  1  0
 10  6  1  0
 11  3  1  0
 12 11  1  0
 13 11  1  0
 14  8  1  0
 15  9  1  0
 15  1  1  0
 15 12  1  6
 16  3  1  0
 16 14  1  0
 17  4  1  0
  1 17  1  6
 18  5  1  0
 18  1  1  0
 19 16  1  0
 19 10  1  0
 20  8  1  0
M  END
