
     RDKit          3D

 13 14  0  0  0  0  0  0  0  0999 V2000
   28.3780   47.5650  -10.3530 N   0  0  0  0  0  0  0  0  0  0  0  0
   28.5400   48.3700   -9.1770 C   0  0  0  0  0  0  0  0  0  0  0  0
   28.3540   49.6740   -9.3180 N   0  0  0  0  0  0  0  0  0  0  0  0
   28.5010   50.4900   -8.2430 C   0  0  0  0  0  0  0  0  0  0  0  0
   28.3040   51.8230   -8.3390 N   0  0  0  0  0  0  0  0  0  0  0  0
   28.4450   52.5950   -7.2720 C   0  0  0  0  0  0  0  0  0  0  0  0
   28.2810   53.7590   -7.3830 O   0  0  0  0  0  0  0  0  0  0  0  0
   28.7970   52.0360   -6.0440 C   0  0  0  0  0  0  0  0  0  0  0  0
   28.9710   50.7340   -5.9460 N   0  0  0  0  0  0  0  0  0  0  0  0
   28.8330   49.9320   -7.0440 C   0  0  0  0  0  0  0  0  0  0  0  0
   29.0310   48.5190   -6.9490 C   0  0  0  0  0  0  0  0  0  0  0  0
   29.3440   47.9960   -5.9280 O   0  0  0  0  0  0  0  0  0  0  0  0
   28.8770   47.7870   -8.0310 N   0  0  0  0  0  0  0  0  0  0  0  0
  2  1  1  0
  3  2  1  0
  4  3  1  0
  5  4  1  0
  6  5  1  0
  7  6  1  0
  8  6  1  0
  9  8  1  0
 10  9  1  0
 10  4  1  0
 11 10  1  0
 12 11  1  0
 13 11  1  0
 13  2  1  0
M  END
$$$$
