
     RDKit          3D

 26 29  0  0  0  0  0  0  0  0999 V2000
    6.0930    0.6710   25.2850 O   0  0  0  0  0  0  0  0  0  0  0  0
    6.3170    1.5260   24.4070 C   0  0  0  0  0  0  0  0  0  0  0  0
    7.4890    1.5390   23.5890 C   0  0  0  0  0  0  0  0  0  0  0  0
    5.4230    2.5440   24.1870 N   0  0  0  0  0  0  0  0  0  0  0  0
    5.6030    3.5710   23.2490 C   0  0  0  0  0  0  0  0  0  0  0  0
    6.7700    3.5880   22.4560 C   0  0  0  0  0  0  0  0  0  0  0  0
    6.9490    4.6120   21.5240 C   0  0  0  0  0  0  0  0  0  0  0  0
    5.9720    5.5820   21.3660 C   0  0  0  0  0  0  0  0  0  0  0  0
    4.8290    5.5650   22.1480 C   0  0  0  0  0  0  0  0  0  0  0  0
    4.6380    4.5700   23.0940 C   0  0  0  0  0  0  0  0  0  0  0  0
    7.7300    2.5020   22.6440 C   0  0  0  0  0  0  0  0  0  0  0  0
    8.9450    2.3740   21.7960 C   0  0  0  0  0  0  0  0  0  0  0  0
    8.8530    1.9510   20.6560 O   0  0  0  0  0  0  0  0  0  0  0  0
   10.1140    2.7490   22.3180 N   0  0  0  0  0  0  0  0  0  0  0  0
   10.2410    3.8050   23.3290 C   0  0  0  0  0  0  0  0  0  0  0  0
   11.2220    3.2540   21.5010 C   0  0  0  0  0  0  0  0  0  0  0  0
   11.3440    4.4440   22.4690 C   0  0  1  0  0  0  0  0  0  0  0  0
   11.1180    5.8050   21.9900 N   0  0  0  0  0  0  0  0  0  0  0  0
   11.1820    6.8860   22.8190 C   0  0  0  0  0  0  0  0  0  0  0  0
   12.1570    6.8690   23.8160 C   0  0  0  0  0  0  0  0  0  0  0  0
   13.1910    6.0120   23.5700 O   0  0  0  0  0  0  0  0  0  0  0  0
   13.3570    4.9300   24.4580 C   0  0  0  0  0  0  0  0  0  0  0  0
   10.2210    7.8950   22.8130 C   0  0  0  0  0  0  0  0  0  0  0  0
   10.2220    8.8350   23.8310 C   0  0  0  0  0  0  0  0  0  0  0  0
   11.1520    8.7630   24.8570 C   0  0  0  0  0  0  0  0  0  0  0  0
   12.1150    7.7670   24.8700 C   0  0  0  0  0  0  0  0  0  0  0  0
  2  1  2  0
  3  2  1  0
  4  2  1  0
  5  4  1  0
  6  5  2  0
  7  6  1  0
  8  7  2  0
  9  8  1  0
 10  9  2  0
 10  5  1  0
 11  6  1  0
 11  3  2  0
 12 11  1  0
 13 12  2  0
 14 12  1  0
 15 14  1  0
 16 14  1  0
 17 15  1  0
 17 16  1  0
 17 18  1  6
 19 18  1  0
 20 19  2  0
 21 20  1  0
 22 21  1  0
 23 19  1  0
 24 23  2  0
 25 24  1  0
 26 25  2  0
 26 20  1  0
M  END
