
     RDKit          3D

 49 53  0  0  0  0  0  0  0  0999 V2000
   10.2240    0.4080   23.2760 N   0  0  0  0  0  0  0  0  0  0  0  0
   10.5670   -0.7980   22.5720 C   0  0  2  0  0  0  0  0  0  0  0  0
    7.4890   -2.6470   21.1880 C   0  0  2  0  0  0  0  0  0  0  0  0
    7.6070   -4.0550   20.5980 C   0  0  2  0  0  0  0  0  0  0  0  0
    6.5820   -1.7480   20.3390 C   0  0  0  0  0  0  0  0  0  0  0  0
    5.8940   -0.7640   21.3230 C   0  0  0  0  0  0  0  0  0  0  0  0
    5.2560    0.3710   20.4790 C   0  0  0  0  0  0  0  0  0  0  0  0
    6.2650   -4.7900   20.6610 C   0  0  0  0  0  0  0  0  0  0  0  0
    4.8990   -6.3830   22.1240 C   0  0  1  0  0  0  0  0  0  0  0  0
    4.5740   -6.5570   23.6130 C   0  0  0  0  0  0  0  0  0  0  0  0
    3.8270   -5.5140   22.7770 C   0  0  0  0  0  0  0  0  0  0  0  0
    9.5230    1.5350   22.6180 C   0  0  0  0  0  0  0  0  0  0  0  0
    9.1820    2.7310   23.4870 C   0  0  2  0  0  0  0  0  0  0  0  0
   10.8300    4.5180   23.8410 C   0  0  0  0  0  0  0  0  0  0  0  0
   11.5730    5.7290   23.2780 C   0  0  1  0  0  0  0  0  0  0  0  0
    7.6600    2.9380   23.5480 C   0  0  2  0  0  0  0  0  0  0  0  0
    9.3300   -1.5710   22.4890 C   0  0  0  0  0  0  0  0  0  0  0  0
    8.7560   -1.8790   23.4880 O   0  0  0  0  0  0  0  0  0  0  0  0
    6.0950   -5.6030   21.8500 N   0  0  0  0  0  0  0  0  0  0  0  0
    9.8510    3.8880   22.9510 N   0  0  0  0  0  0  0  0  0  0  0  0
   12.0620    6.3170   24.5010 N   0  0  0  0  0  0  0  0  0  0  0  0
    8.7560   -1.9200   21.2000 N   0  0  0  0  0  0  0  0  0  0  0  0
   12.5580    9.4870   26.4270 N   0  0  0  0  0  0  0  0  0  0  0  0
   13.5160    7.5620   28.0980 N   0  0  0  0  0  0  0  0  0  0  0  0
   11.7270   -1.4960   23.3950 C   0  0  1  0  0  0  0  0  0  0  0  0
    6.9930    1.5940   23.9730 C   0  0  0  0  0  0  0  0  0  0  0  0
   12.1900    7.7600   24.6300 C   0  0  0  0  0  0  0  0  0  0  0  0
    7.0950    3.4390   22.1970 C   0  0  0  0  0  0  0  0  0  0  0  0
    7.3630    4.0130   24.6100 C   0  0  0  0  0  0  0  0  0  0  0  0
   13.1500   -1.3340   22.4860 C   0  0  0  0  0  0  0  0  0  0  0  0
   13.8270   -0.2870   23.0000 C   0  0  0  0  0  0  0  0  0  0  0  0
   12.6440    5.2430   22.2760 C   0  0  1  0  0  0  0  0  0  0  0  0
   13.5200    6.4190   21.7420 C   0  0  0  0  0  0  0  0  0  0  0  0
   14.5410    5.8560   20.7330 C   0  0  0  0  0  0  0  0  0  0  0  0
   15.4550    4.8150   21.4280 C   0  0  0  0  0  0  0  0  0  0  0  0
   14.6740    3.6450   22.0660 C   0  0  0  0  0  0  0  0  0  0  0  0
   13.4610    4.1210   22.9260 C   0  0  0  0  0  0  0  0  0  0  0  0
   12.6540    8.2230   26.0320 C   0  0  0  0  0  0  0  0  0  0  0  0
   12.9580    9.8150   27.6590 C   0  0  0  0  0  0  0  0  0  0  0  0
   13.4460    8.8300   28.4990 C   0  0  0  0  0  0  0  0  0  0  0  0
   13.1110    7.2380   26.8810 C   0  0  0  0  0  0  0  0  0  0  0  0
    8.5480   -4.7640   21.3410 O   0  0  0  0  0  0  0  0  0  0  0  0
    5.4360   -4.7180   19.7900 O   0  0  0  0  0  0  0  0  0  0  0  0
    9.2620    1.4520   21.4420 O   0  0  0  0  0  0  0  0  0  0  0  0
   10.9860    4.0720   24.9490 O   0  0  0  0  0  0  0  0  0  0  0  0
   11.9640    8.4840   23.7170 O   0  0  0  0  0  0  0  0  0  0  0  0
   11.8040   -0.6510   24.6800 C   0  0  2  0  0  0  0  0  0  0  0  0
   10.6320    0.2830   24.5320 C   0  0  0  0  0  0  0  0  0  0  0  0
   13.3220   -0.0870   24.4170 C   0  0  0  0  0  0  0  0  0  0  0  0
  2  1  1  0
  4  3  1  0
  3  5  1  6
  6  5  1  0
  7  6  1  0
  8  4  1  0
 10  9  1  0
 11 10  1  0
 11  9  1  0
 12  1  1  0
 13 12  1  0
 15 14  1  0
 16 13  1  0
  2 17  1  1
 18 17  2  0
  9 19  1  1
 19  8  1  0
 20 14  1  0
 13 20  1  6
 15 21  1  1
 22  3  1  0
 22 17  1  0
 25  2  1  0
 16 26  1  1
 27 21  1  0
 28 16  1  0
 29 16  1  0
 25 30  1  6
 31 30  1  0
 32 15  1  0
 32 33  1  1
 34 33  1  0
 35 34  1  0
 36 35  1  0
 37 36  1  0
 37 32  1  0
 38 27  1  0
 38 23  2  0
 39 23  1  0
 40 39  2  0
 40 24  1  0
 41 38  1  0
 41 24  2  0
  4 42  1  1
 43  8  2  0
 44 12  2  0
 45 14  2  0
 46 27  2  0
 47 25  1  0
 48  1  1  0
 47 48  1  6
 49 47  1  0
 49 31  1  0
M  END
$$$$
