
     RDKit          3D

 13 14  0  0  0  0  0  0  0  0999 V2000
   33.7530   49.8100  -18.9040 C   0  0  0  0  0  0  0  0  0  0  0  0
   33.2510   49.7460  -20.3530 C   0  0  0  0  0  0  0  0  0  0  0  0
   33.1140   50.9400  -21.0230 C   0  0  0  0  0  0  0  0  0  0  0  0
   32.6670   50.9680  -22.3290 C   0  0  0  0  0  0  0  0  0  0  0  0
   32.3350   49.7790  -22.9670 C   0  0  0  0  0  0  0  0  0  0  0  0
   31.8700   49.5240  -24.2570 C   0  0  0  0  0  0  0  0  0  0  0  0
   31.6850   48.1740  -24.3360 C   0  0  2  0  0  0  0  0  0  0  0  0
   32.0630   47.6300  -23.1950 N   0  0  0  0  0  0  0  0  0  0  0  0
   32.4510   48.5750  -22.3250 C   0  0  0  0  0  0  0  0  0  0  0  0
   32.9210   48.5410  -20.9850 C   0  0  0  0  0  0  0  0  0  0  0  0
   31.2830   47.4700  -25.6170 C   0  0  2  0  0  0  0  0  0  0  0  0
   31.6560   46.3000  -25.7630 O   0  0  0  0  0  0  0  0  0  0  0  0
   30.7480   48.0350  -26.5960 O   0  0  0  0  0  0  0  0  0  0  0  0
  2  1  1  0
  3  2  1  0
  4  3  1  0
  5  4  1  0
  6  5  1  0
  7  6  1  6
  8  7  1  0
  9  8  1  0
  9  5  1  0
 10  9  1  0
 10  2  1  0
 11  7  1  0
 11 12  1  6
 13 11  1  0
M  CHG  1  13  -1
M  END
$$$$
