
     RDKit          3D

 17 18  0  0  0  0  0  0  0  0999 V2000
    6.9070   -0.0830   17.7750 O   0  0  0  0  0  0  0  0  0  0  0  0
    6.1820    0.5030   18.5580 C   0  0  0  0  0  0  0  0  0  0  0  0
    5.2310    1.4250   18.3310 N   0  0  0  0  0  0  0  0  0  0  0  0
    4.6770    1.9160   19.4930 N   0  0  0  0  0  0  0  0  0  0  0  0
    5.2930    1.2790   20.4350 C   0  0  0  0  0  0  0  0  0  0  0  0
    6.2080    0.4090   19.9290 N   0  0  0  0  0  0  0  0  0  0  0  0
    7.0080   -0.4610   20.6500 N   0  0  0  0  0  0  0  0  0  0  0  0
    8.1710   -0.0250   21.1760 C   0  0  0  0  0  0  0  0  0  0  0  0
    8.7500    0.9930   20.8010 O   0  0  0  0  0  0  0  0  0  0  0  0
    8.7070   -0.8610   22.3210 C   0  0  0  0  0  0  0  0  0  0  0  0
   10.1360   -0.5040   22.6680 C   0  0  0  0  0  0  0  0  0  0  0  0
   11.1880   -1.2320   22.1200 C   0  0  0  0  0  0  0  0  0  0  0  0
   12.4890   -0.8150   22.3290 C   0  0  0  0  0  0  0  0  0  0  0  0
   13.7900   -1.7190   21.5990 Cl  0  0  0  0  0  0  0  0  0  0  0  0
   10.4260    0.6000   23.4620 C   0  0  0  0  0  0  0  0  0  0  0  0
   11.7390    1.0020   23.6660 C   0  0  0  0  0  0  0  0  0  0  0  0
   12.7830    0.3000   23.0850 C   0  0  0  0  0  0  0  0  0  0  0  0
  2  1  2  0
  3  2  1  0
  4  3  1  0
  5  4  2  0
  6  5  1  0
  6  2  1  0
  7  6  1  0
  8  7  1  0
  9  8  2  0
 10  8  1  0
 11 10  1  0
 12 11  2  0
 13 12  1  0
 14 13  1  0
 15 11  1  0
 16 15  2  0
 17 16  1  0
 17 13  2  0
M  END
