
     RDKit          3D

 18 19  0  0  0  0  0  0  0  0999 V2000
    8.5910    0.6370   24.9500 N   0  0  0  0  0  0  0  0  0  0  0  0
    7.8470    1.3990   24.0470 C   0  0  0  0  0  0  0  0  0  0  0  0
    8.3200    2.3970   23.4800 O   0  0  0  0  0  0  0  0  0  0  0  0
    9.9750    0.9680   25.2760 C   0  0  0  0  0  0  0  0  0  0  0  0
    4.1890    0.2930   24.7610 C   0  0  0  0  0  0  0  0  0  0  0  0
    4.3610    0.9880   22.4890 C   0  0  0  0  0  0  0  0  0  0  0  0
    5.7570    1.5950   22.7340 C   0  0  0  0  0  0  0  0  0  0  0  0
   10.8950    0.3440   24.2640 C   0  0  0  0  0  0  0  0  0  0  0  0
   12.0590    1.0040   23.8800 C   0  0  0  0  0  0  0  0  0  0  0  0
   12.9070    0.4250   22.9390 C   0  0  0  0  0  0  0  0  0  0  0  0
   12.5700   -0.8110   22.3760 C   0  0  0  0  0  0  0  0  0  0  0  0
   13.4080   -1.3840   21.3940 C   0  0  0  0  0  0  0  0  0  0  0  0
   11.4100   -1.4790   22.7610 C   0  0  0  0  0  0  0  0  0  0  0  0
   10.5740   -0.9000   23.7070 C   0  0  0  0  0  0  0  0  0  0  0  0
    5.6220    0.7890   25.0630 C   0  0  0  0  0  0  0  0  0  0  0  0
   14.1100   -1.8210   20.5920 N   0  0  0  0  0  0  0  0  0  0  0  0
    6.4770    0.9020   23.8360 N   0  0  0  0  0  0  0  0  0  0  0  0
    3.6160    1.0220   23.6900 O   0  0  0  0  0  0  0  0  0  0  0  0
  2  1  1  0
  3  2  2  0
  4  1  1  0
  7  6  1  0
  8  4  1  0
  9  8  2  0
 10  9  1  0
 11 10  2  0
 12 11  1  0
 13 11  1  0
 14  8  1  0
 14 13  2  0
 15  5  1  0
 16 12  3  0
 17 15  1  0
 17  7  1  0
 17  2  1  0
 18  6  1  0
 18  5  1  0
M  END
