
     RDKit          3D

 26 28  0  0  0  0  0  0  0  0999 V2000
    8.7390    0.6050   20.8750 O   0  0  0  0  0  0  0  0  0  0  0  0
    8.1850   -0.4810   21.0160 C   0  0  0  0  0  0  0  0  0  0  0  0
    7.0580   -0.8340   20.3770 N   0  0  0  0  0  0  0  0  0  0  0  0
    6.3790   -0.0420   19.4350 C   0  0  0  0  0  0  0  0  0  0  0  0
    5.2470    0.6910   19.8260 C   0  0  1  0  0  0  0  0  0  0  0  0
    4.7650    0.7160   21.2530 C   0  0  0  0  0  0  0  0  0  0  0  0
    4.6260    1.4670   18.8550 C   0  0  0  0  0  0  0  0  0  0  0  0
    5.1450    1.5050   17.5780 C   0  0  0  0  0  0  0  0  0  0  0  0
    6.2380    0.8250   17.2020 N   0  0  0  0  0  0  0  0  0  0  0  0
    6.8340    0.0570   18.1220 C   0  0  0  0  0  0  0  0  0  0  0  0
    8.7210   -1.5430   21.9530 C   0  0  0  0  0  0  0  0  0  0  0  0
   10.0130   -1.0980   22.5890 C   0  0  0  0  0  0  0  0  0  0  0  0
   11.2310   -1.5540   22.0980 C   0  0  0  0  0  0  0  0  0  0  0  0
   12.4010   -1.1530   22.7040 C   0  0  2  0  0  0  0  0  0  0  0  0
   13.9080   -1.8280   22.1560 Cl  0  0  0  0  0  0  0  0  0  0  0  0
   12.4050   -0.2880   23.7800 C   0  0  0  0  0  0  0  0  0  0  0  0
    9.9940   -0.2400   23.6810 C   0  0  0  0  0  0  0  0  0  0  0  0
   11.1850    0.1470   24.2740 C   0  0  0  0  0  0  0  0  0  0  0  0
   11.2680    0.9880   25.3560 O   0  0  0  0  0  0  0  0  0  0  0  0
   10.0720    1.5850   25.8710 C   0  0  0  0  0  0  0  0  0  0  0  0
    9.3170    0.6320   26.7330 C   0  0  0  0  0  0  0  0  0  0  0  0
    9.8870   -0.5060   27.1530 O   0  0  0  0  0  0  0  0  0  0  0  0
    8.9220   -1.1440   27.9750 N   0  0  0  0  0  0  0  0  0  0  0  0
    8.1190    0.8020   27.1740 N   0  0  0  0  0  0  0  0  0  0  0  0
    7.9160   -0.3210   27.9410 C   0  0  0  0  0  0  0  0  0  0  0  0
    6.6330   -0.5450   28.6550 C   0  0  0  0  0  0  0  0  0  0  0  0
  2  1  1  0
  3  2  1  0
  4  3  1  0
  5  4  1  0
  5  6  1  1
  7  5  1  0
  8  7  1  0
  9  8  1  0
 10  9  1  0
 10  4  1  0
 11  2  1  0
 12 11  1  0
 13 12  1  0
 14 13  1  0
 14 15  1  1
 16 14  1  0
 17 12  1  0
 18 17  1  0
 18 16  1  0
 19 18  1  0
 20 19  1  0
 21 20  1  0
 22 21  1  0
 23 22  1  0
 24 21  1  0
 25 24  1  0
 25 23  1  0
 26 25  1  0
M  END
$$$$
