
     RDKit          3D

 19 21  0  0  0  0  0  0  0  0999 V2000
   13.7980   -1.2840   23.5850 C   0  0  0  0  0  0  0  0  0  0  0  0
   12.3890   -0.9090   23.7060 N   0  0  0  0  0  0  0  0  0  0  0  0
    9.0520    1.3880   21.1530 O   0  0  0  0  0  0  0  0  0  0  0  0
   11.5340   -1.8480   22.9760 C   0  0  0  0  0  0  0  0  0  0  0  0
    9.8930   -0.1030   22.6150 N   0  0  0  0  0  0  0  0  0  0  0  0
   10.0800   -1.4640   23.1150 C   0  0  0  0  0  0  0  0  0  0  0  0
    6.7000    0.3520   17.8100 N   0  0  0  0  0  0  0  0  0  0  0  0
   10.7210    0.8560   23.3410 C   0  0  0  0  0  0  0  0  0  0  0  0
    4.7170    1.5470   18.5050 N   0  0  0  0  0  0  0  0  0  0  0  0
   12.1720    0.4570   23.2200 C   0  0  0  0  0  0  0  0  0  0  0  0
    9.1290    0.2300   21.5590 C   0  0  0  0  0  0  0  0  0  0  0  0
    8.3730   -0.8840   20.8500 C   0  0  0  0  0  0  0  0  0  0  0  0
    7.4960   -0.2940   19.7970 C   0  0  0  0  0  0  0  0  0  0  0  0
    7.7040   -0.3230   18.4510 C   0  0  0  0  0  0  0  0  0  0  0  0
    5.8240    0.8270   18.7390 C   0  0  0  0  0  0  0  0  0  0  0  0
    4.0290    1.8980   19.5990 C   0  0  0  0  0  0  0  0  0  0  0  0
    4.3950    1.5820   20.9040 C   0  0  0  0  0  0  0  0  0  0  0  0
    5.5450    0.8540   21.1250 C   0  0  0  0  0  0  0  0  0  0  0  0
    6.2930    0.4520   20.0130 C   0  0  0  0  0  0  0  0  0  0  0  0
  2  1  1  0
  4  2  1  0
  6  5  1  0
  6  4  1  0
  8  5  1  0
 10  8  1  0
 10  2  1  0
 11  3  2  0
 11  5  1  0
 12 11  1  0
 13 12  1  0
 14 13  2  0
 14  7  1  0
 15  9  2  0
 15  7  1  0
 16  9  1  0
 17 16  2  0
 18 17  1  0
 19 18  2  0
 19 15  1  0
 19 13  1  0
M  END
