
     RDKit          3D

  9  9  0  0  0  0  0  0  0  0999 V2000
   30.3230   48.4150   -5.7320 N   0  0  0  0  0  0  0  0  0  0  0  0
   29.7040   48.9230   -6.5500 C   0  0  0  0  0  0  0  0  0  0  0  0
   28.9400   49.5100   -7.6020 C   0  0  2  0  0  0  0  0  0  0  0  0
   28.2880   48.9010   -8.7080 C   0  0  0  0  0  0  0  0  0  0  0  0
   28.1240   47.4460   -9.0030 C   0  0  0  0  0  0  0  0  0  0  0  0
   28.7750   50.9000   -7.8120 C   0  0  0  0  0  0  0  0  0  0  0  0
   29.2110   51.8940   -7.0630 N   0  0  0  0  0  0  0  0  0  0  0  0
   28.0730   51.0510   -8.9820 N   0  0  0  0  0  0  0  0  0  0  0  0
   27.7850   49.8260   -9.5300 N   0  0  0  0  0  0  0  0  0  0  0  0
  2  1  1  0
  3  2  1  6
  4  3  1  0
  5  4  1  0
  6  3  1  0
  7  6  1  0
  8  6  1  0
  9  4  1  0
  9  8  1  0
M  END
$$$$
