
     RDKit          3D

 21 24  0  0  0  0  0  0  0  0999 V2000
    7.4070   -0.4470   20.4710 N   0  0  0  0  0  0  0  0  0  0  0  0
   12.5590   -0.9040   22.3140 C   0  0  2  0  0  0  0  0  0  0  0  0
    9.3810    0.7000   24.3170 O   0  0  0  0  0  0  0  0  0  0  0  0
   13.8540   -1.7860   21.5730 Cl  0  0  0  0  0  0  0  0  0  0  0  0
   12.8560    0.0650   23.2580 C   0  0  0  0  0  0  0  0  0  0  0  0
    7.4610    0.1370   18.1340 N   0  0  0  0  0  0  0  0  0  0  0  0
    8.6880    1.3070   21.1290 O   0  0  0  0  0  0  0  0  0  0  0  0
   11.8270    0.6710   23.9590 C   0  0  0  0  0  0  0  0  0  0  0  0
    6.5800    0.7910   17.2870 N   0  0  0  0  0  0  0  0  0  0  0  0
   10.5250    0.3030   23.6650 C   0  0  1  0  0  0  0  0  0  0  0  0
    5.6530    0.6820   19.2850 N   0  0  0  0  0  0  0  0  0  0  0  0
    8.2360   -0.0250   23.7920 C   0  0  0  0  0  0  0  0  0  0  0  0
    8.7240   -0.6840   22.5050 C   0  0  1  0  0  0  0  0  0  0  0  0
    8.2870    0.1630   21.3080 C   0  0  0  0  0  0  0  0  0  0  0  0
    6.8890    0.0830   19.3240 C   0  0  0  0  0  0  0  0  0  0  0  0
    5.5250    1.0970   17.9860 C   0  0  0  0  0  0  0  0  0  0  0  0
    4.7090    0.8850   20.4070 C   0  0  2  0  0  0  0  0  0  0  0  0
    3.9610    2.1720   20.4800 C   0  0  0  0  0  0  0  0  0  0  0  0
    5.0590    1.8830   21.4560 C   0  0  0  0  0  0  0  0  0  0  0  0
   10.2260   -0.6200   22.6850 C   0  0  1  0  0  0  0  0  0  0  0  0
   11.2600   -1.2460   22.0040 C   0  0  0  0  0  0  0  0  0  0  0  0
  2  4  1  1
  5  2  1  0
  8  5  1  0
  9  6  1  0
 10  3  1  0
 10  8  1  1
 12  3  1  0
 13 12  1  0
 14  7  1  0
 14  1  1  0
 13 14  1  6
 15 11  1  0
 15  6  1  0
 15  1  1  0
 16 11  1  0
 16  9  1  0
 17 11  1  6
 18 17  1  0
 19 18  1  0
 19 17  1  0
 20 13  1  0
 20 10  1  0
 20 21  1  6
 21  2  1  0
M  END
$$$$
