
     RDKit          3D

 20 22  0  0  0  0  0  0  0  0999 V2000
    8.9050    0.4800   21.1080 O   0  0  0  0  0  0  0  0  0  0  0  0
    8.1910   -0.4490   21.4910 C   0  0  0  0  0  0  0  0  0  0  0  0
    7.0250   -0.7850   20.9100 N   0  0  0  0  0  0  0  0  0  0  0  0
    6.4240   -0.0720   19.8560 C   0  0  0  0  0  0  0  0  0  0  0  0
    6.9200   -0.1540   18.5540 C   0  0  0  0  0  0  0  0  0  0  0  0
    6.4170    0.5490   17.5350 N   0  0  0  0  0  0  0  0  0  0  0  0
    5.3760    1.3480   17.7920 C   0  0  0  0  0  0  0  0  0  0  0  0
    4.8030    1.4780   19.0430 C   0  0  0  0  0  0  0  0  0  0  0  0
    5.3360    0.7780   20.1190 C   0  0  0  0  0  0  0  0  0  0  0  0
    4.8130    0.9980   21.5170 C   0  0  0  0  0  0  0  0  0  0  0  0
    8.5330   -1.2790   22.7120 C   0  0  0  0  0  0  0  0  0  0  0  0
    9.7370   -0.6870   23.3990 C   0  0  0  0  0  0  0  0  0  0  0  0
   11.0140   -1.0070   22.9550 C   0  0  0  0  0  0  0  0  0  0  0  0
   12.1330   -0.3330   23.4220 C   0  0  0  0  0  0  0  0  0  0  0  0
   13.5040   -0.7180   22.9170 C   0  0  2  0  0  0  0  0  0  0  0  0
   13.6730   -1.3870   21.5850 C   0  0  0  0  0  0  0  0  0  0  0  0
   13.9130   -2.1580   22.8200 C   0  0  0  0  0  0  0  0  0  0  0  0
   11.9640    0.6750   24.3600 C   0  0  0  0  0  0  0  0  0  0  0  0
   10.7040    0.9800   24.8450 C   0  0  0  0  0  0  0  0  0  0  0  0
    9.5970    0.2940   24.3700 C   0  0  0  0  0  0  0  0  0  0  0  0
  2  1  2  0
  3  2  1  0
  4  3  1  0
  5  4  2  0
  6  5  1  0
  7  6  2  0
  8  7  1  0
  9  8  2  0
  9  4  1  0
 10  9  1  0
 11  2  1  0
 12 11  1  0
 13 12  2  0
 14 13  1  0
 15 14  1  1
 16 15  1  0
 17 16  1  0
 17 15  1  0
 18 14  2  0
 19 18  1  0
 20 19  2  0
 20 12  1  0
M  END
