
     RDKit          3D

 17 18  0  0  0  0  0  0  0  0999 V2000
    6.7380   -3.6980   21.8080 N   0  0  0  0  0  0  0  0  0  0  0  0
    8.3290   -3.3230   20.0990 C   0  0  0  0  0  0  0  0  0  0  0  0
    6.1060   -4.0850   19.6500 O   0  0  0  0  0  0  0  0  0  0  0  0
    6.9340   -3.7470   20.4800 C   0  0  0  0  0  0  0  0  0  0  0  0
    3.6880   -3.4900   25.5050 N   0  0  0  0  0  0  0  0  0  0  0  0
    5.4140   -2.0420   25.9470 O   0  0  0  0  0  0  0  0  0  0  0  0
    5.7870   -4.3750   22.6020 C   0  0  0  0  0  0  0  0  0  0  0  0
    5.4410   -5.7110   22.4060 C   0  0  0  0  0  0  0  0  0  0  0  0
    4.5100   -6.2980   23.2440 C   0  0  0  0  0  0  0  0  0  0  0  0
    3.9240   -5.5790   24.2720 C   0  0  0  0  0  0  0  0  0  0  0  0
    4.2800   -4.2520   24.4610 C   0  0  0  0  0  0  0  0  0  0  0  0
    5.2110   -3.6420   23.6290 C   0  0  0  0  0  0  0  0  0  0  0  0
    2.3000   -3.7030   25.9360 C   0  0  0  0  0  0  0  0  0  0  0  0
    2.0050   -2.5070   26.8160 C   0  0  0  0  0  0  0  0  0  0  0  0
    3.3720   -2.0390   27.2830 C   0  0  0  0  0  0  0  0  0  0  0  0
    4.3100   -2.4880   26.1960 C   0  0  0  0  0  0  0  0  0  0  0  0
    8.6710   -3.4280   18.3240 S   0  0  0  0  0  0  0  0  0  0  0  0
  4  3  2  0
  4  2  1  0
  4  1  1  0
  7  1  1  0
  8  7  2  0
  9  8  1  0
 10  9  2  0
 11 10  1  0
 11  5  1  0
 12 11  2  0
 12  7  1  0
 13  5  1  0
 14 13  1  0
 15 14  1  0
 16  6  2  0
 16  5  1  0
 16 15  1  0
  2 17  1  0
M  END
