
     RDKit          3D

 49 53  0  0  0  0  0  0  0  0999 V2000
   10.2130    0.5390   23.0670 N   0  0  0  0  0  0  0  0  0  0  0  0
   10.5680   -0.6880   22.3460 C   0  0  2  0  0  0  0  0  0  0  0  0
    7.4470   -2.6210   21.1960 C   0  0  2  0  0  0  0  0  0  0  0  0
    7.6040   -4.0080   20.5250 C   0  0  2  0  0  0  0  0  0  0  0  0
    6.2750   -1.8670   20.5320 C   0  0  0  0  0  0  0  0  0  0  0  0
    6.3480   -0.3490   20.6230 C   0  0  0  0  0  0  0  0  0  0  0  0
    6.0540    0.2510   19.2550 C   0  0  0  0  0  0  0  0  0  0  0  0
    6.2940   -4.8180   20.6100 C   0  0  0  0  0  0  0  0  0  0  0  0
    4.9570   -6.3430   22.0630 C   0  0  1  0  0  0  0  0  0  0  0  0
    4.6220   -6.6260   23.5220 C   0  0  0  0  0  0  0  0  0  0  0  0
    3.7500   -5.6850   22.7240 C   0  0  0  0  0  0  0  0  0  0  0  0
    9.5860    1.6420   22.5010 C   0  0  0  0  0  0  0  0  0  0  0  0
    9.2150    2.8990   23.3530 C   0  0  2  0  0  0  0  0  0  0  0  0
   10.8940    4.6060   23.6640 C   0  0  0  0  0  0  0  0  0  0  0  0
   11.6990    5.7930   23.0910 C   0  0  1  0  0  0  0  0  0  0  0  0
    7.6570    3.1610   23.3670 C   0  0  1  0  0  0  0  0  0  0  0  0
    9.2700   -1.5110   22.3410 C   0  0  0  0  0  0  0  0  0  0  0  0
    8.6620   -1.7660   23.3840 O   0  0  0  0  0  0  0  0  0  0  0  0
    6.1060   -5.5490   21.7720 N   0  0  0  0  0  0  0  0  0  0  0  0
    9.9300    4.0450   22.8580 N   0  0  0  0  0  0  0  0  0  0  0  0
   12.2290    6.3950   24.3120 N   0  0  0  0  0  0  0  0  0  0  0  0
    8.7180   -1.8920   21.1360 N   0  0  0  0  0  0  0  0  0  0  0  0
   13.2230    7.3320   26.6950 N   0  0  0  0  0  0  0  0  0  0  0  0
   13.2410   10.0820   27.2830 N   0  0  0  0  0  0  0  0  0  0  0  0
   11.6330   -1.3930   23.2050 C   0  0  1  0  0  0  0  0  0  0  0  0
    7.0730    3.5350   21.9980 C   0  0  0  0  0  0  0  0  0  0  0  0
   12.3990    7.7500   24.4330 C   0  0  0  0  0  0  0  0  0  0  0  0
    6.9400    1.9210   23.9000 C   0  0  0  0  0  0  0  0  0  0  0  0
    7.3940    4.2840   24.3930 C   0  0  0  0  0  0  0  0  0  0  0  0
   13.0020   -1.3840   22.5020 C   0  0  0  0  0  0  0  0  0  0  0  0
   13.6560   -0.0640   22.9110 C   0  0  0  0  0  0  0  0  0  0  0  0
   12.7770    5.2020   22.1350 C   0  0  2  0  0  0  0  0  0  0  0  0
   13.7270    4.2040   22.8200 C   0  0  0  0  0  0  0  0  0  0  0  0
   14.8120    3.7020   21.8760 C   0  0  0  0  0  0  0  0  0  0  0  0
   15.5600    4.8470   21.1890 C   0  0  0  0  0  0  0  0  0  0  0  0
   14.5800    5.7410   20.4510 C   0  0  0  0  0  0  0  0  0  0  0  0
   13.5760    6.3090   21.4380 C   0  0  0  0  0  0  0  0  0  0  0  0
   12.8670    8.2560   25.7640 C   0  0  0  0  0  0  0  0  0  0  0  0
   13.6190    7.7910   27.9090 C   0  0  0  0  0  0  0  0  0  0  0  0
   13.6250    9.1690   28.2030 C   0  0  0  0  0  0  0  0  0  0  0  0
   12.8480    9.6370   26.0650 C   0  0  0  0  0  0  0  0  0  0  0  0
    8.5590   -4.7130   21.2250 O   0  0  0  0  0  0  0  0  0  0  0  0
    5.4480   -4.7510   19.7120 O   0  0  0  0  0  0  0  0  0  0  0  0
    9.3650    1.6120   21.3000 O   0  0  0  0  0  0  0  0  0  0  0  0
   11.1190    4.1460   24.8150 O   0  0  0  0  0  0  0  0  0  0  0  0
   12.1300    8.5180   23.5150 O   0  0  0  0  0  0  0  0  0  0  0  0
   11.7790   -0.5070   24.4670 C   0  0  2  0  0  0  0  0  0  0  0  0
   10.5630    0.4070   24.4840 C   0  0  0  0  0  0  0  0  0  0  0  0
   13.1100    0.2470   24.3070 C   0  0  0  0  0  0  0  0  0  0  0  0
  2  1  1  0
  4  3  1  0
  3  5  1  6
  6  5  1  0
  7  6  1  0
  8  4  1  0
 10  9  1  0
 11 10  1  0
 11  9  1  0
 12  1  1  0
 13 12  1  0
 15 14  1  0
 16 13  1  0
  2 17  1  1
 18 17  2  0
  9 19  1  1
 19  8  1  0
 20 14  1  0
 13 20  1  6
 15 21  1  1
 22  3  1  0
 22 17  1  0
 25  2  1  0
 16 26  1  6
 27 21  1  0
 28 16  1  0
 29 16  1  0
 25 30  1  6
 31 30  1  0
 32 15  1  0
 32 33  1  1
 34 33  1  0
 35 34  1  0
 36 35  1  0
 37 32  1  0
 37 36  1  0
 38 27  1  0
 38 23  2  0
 39 23  1  0
 40 39  2  0
 40 24  1  0
 41 38  1  0
 41 24  2  0
  4 42  1  1
 43  8  2  0
 44 12  2  0
 45 14  2  0
 46 27  2  0
 47 25  1  0
 48  1  1  0
 47 48  1  6
 49 47  1  0
 49 31  1  0
M  END
