
     RDKit          3D

 32 35  0  0  0  0  0  0  0  0999 V2000
    6.9180   -2.0660   21.7550 C   0  0  0  0  0  0  0  0  0  0  0  0
    7.7230   -2.7580   22.7160 C   0  0  2  0  0  0  0  0  0  0  0  0
    7.1690   -3.9780   23.4430 C   0  0  0  0  0  0  0  0  0  0  0  0
    6.4440   -5.0110   22.8100 C   0  0  0  0  0  0  0  0  0  0  0  0
    6.1910   -5.0040   21.3060 C   0  0  0  0  0  0  0  0  0  0  0  0
    5.9450   -6.0830   23.5700 C   0  0  0  0  0  0  0  0  0  0  0  0
    9.1460    0.7230   20.7760 O   0  0  0  0  0  0  0  0  0  0  0  0
    8.6990   -0.4220   21.4170 C   0  0  0  0  0  0  0  0  0  0  0  0
    6.6150   -0.2280   20.0990 C   0  0  0  0  0  0  0  0  0  0  0  0
    7.0520   -0.2010   18.7670 C   0  0  0  0  0  0  0  0  0  0  0  0
    5.0610    1.0420   18.1490 C   0  0  0  0  0  0  0  0  0  0  0  0
    4.6240    1.0160   19.4850 C   0  0  0  0  0  0  0  0  0  0  0  0
    5.3990    0.3680   20.4610 C   0  0  0  0  0  0  0  0  0  0  0  0
   12.7230    2.6370   23.2900 O   0  0  0  0  0  0  0  0  0  0  0  0
    6.1570   -6.1200   24.9570 C   0  0  0  0  0  0  0  0  0  0  0  0
    6.8680   -5.0950   25.5880 C   0  0  0  0  0  0  0  0  0  0  0  0
    7.3660   -4.0290   24.8320 C   0  0  0  0  0  0  0  0  0  0  0  0
    9.0230   -2.2190   23.0370 C   0  0  0  0  0  0  0  0  0  0  0  0
    9.4960   -1.0730   22.3670 C   0  0  0  0  0  0  0  0  0  0  0  0
   10.8890   -0.5640   22.7390 C   0  0  0  0  0  0  0  0  0  0  0  0
   11.9080   -1.4990   23.0090 C   0  0  0  0  0  0  0  0  0  0  0  0
   13.1920   -1.0300   23.3640 C   0  0  0  0  0  0  0  0  0  0  0  0
   13.4510    0.3460   23.4650 C   0  0  0  0  0  0  0  0  0  0  0  0
   12.4320    1.2750   23.1990 C   0  0  0  0  0  0  0  0  0  0  0  0
   11.7640    3.5140   22.7860 C   0  0  0  0  0  0  0  0  0  0  0  0
   12.3830    4.9050   22.8690 C   0  0  0  0  0  0  0  0  0  0  0  0
   13.7970    4.8190   22.2990 C   0  0  0  0  0  0  0  0  0  0  0  0
   11.1520    0.8220   22.8350 C   0  0  0  0  0  0  0  0  0  0  0  0
    7.4310   -0.9000   21.0990 N   0  0  0  0  0  0  0  0  0  0  0  0
    6.2800    0.4320   17.7910 N   0  0  0  0  0  0  0  0  0  0  0  0
    6.0070   -4.9840   20.1860 N   0  0  0  0  0  0  0  0  0  0  0  0
   14.4960   -2.1750   23.7270 Cl  0  0  0  0  0  0  0  0  0  0  0  0
  2  1  1  0
  2  3  1  1
  4  3  1  0
  5  4  1  0
  6  4  1  0
  8  7  1  0
 10  9  1  0
 12 11  1  0
 13 12  1  0
 13  9  1  0
 15  6  1  0
 16 15  1  0
 17 16  1  0
 17  3  1  0
 18  2  1  0
 19  8  1  0
 19 18  1  0
 20 19  1  0
 21 20  1  0
 22 21  1  0
 23 22  1  0
 24 23  1  0
 24 14  1  0
 25 14  1  0
 26 25  1  0
 27 26  1  0
 28 20  1  0
 28 24  1  0
 29  9  1  0
 29  8  1  0
 29  1  1  0
 30 11  1  0
 30 10  1  0
 31  5  1  0
 32 22  1  0
M  END
