
     RDKit          3D

 31 35  0  0  0  0  0  0  0  0999 V2000
    7.2340   -0.1510   19.8230 N   0  0  0  0  0  0  0  0  0  0  0  0
    9.0340    0.1430   21.4860 C   0  0  0  0  0  0  0  0  0  0  0  0
    9.2960    1.2290   20.9920 O   0  0  0  0  0  0  0  0  0  0  0  0
    8.0870   -0.8280   20.7790 C   0  0  0  0  0  0  0  0  0  0  0  0
    7.5100   -0.1960   18.4940 N   0  0  0  0  0  0  0  0  0  0  0  0
    6.6410   -3.5190   27.6380 O   0  0  0  0  0  0  0  0  0  0  0  0
    5.7000    0.9680   18.7690 C   0  0  0  0  0  0  0  0  0  0  0  0
    6.5980    0.4750   17.8510 N   0  0  0  0  0  0  0  0  0  0  0  0
    4.5490    1.7370   18.6140 C   0  0  0  0  0  0  0  0  0  0  0  0
    9.5700   -0.2700   22.6750 N   0  0  0  0  0  0  0  0  0  0  0  0
    3.8130    2.0700   19.7440 C   0  0  0  0  0  0  0  0  0  0  0  0
    7.7040   -4.5150   25.8820 N   0  0  0  0  0  0  0  0  0  0  0  0
    4.2180    1.6500   21.0100 C   0  0  0  0  0  0  0  0  0  0  0  0
    5.3710    0.8930   21.1760 C   0  0  0  0  0  0  0  0  0  0  0  0
    6.0960    0.5640   20.0400 C   0  0  0  0  0  0  0  0  0  0  0  0
   10.7330    0.4470   23.1870 C   0  0  0  0  0  0  0  0  0  0  0  0
   11.9060   -0.4500   23.4960 C   0  0  0  0  0  0  0  0  0  0  0  0
   12.8050   -1.0000   22.5390 C   0  0  0  0  0  0  0  0  0  0  0  0
   13.7480   -1.8350   23.0980 C   0  0  0  0  0  0  0  0  0  0  0  0
   12.1990   -0.8790   24.7590 C   0  0  0  0  0  0  0  0  0  0  0  0
    9.0500   -1.3510   23.4600 C   0  0  2  0  0  0  0  0  0  0  0  0
    8.1780   -1.0850   24.5120 C   0  0  0  0  0  0  0  0  0  0  0  0
    7.7300   -2.1090   25.3280 C   0  0  0  0  0  0  0  0  0  0  0  0
    8.1450   -3.4200   25.1010 C   0  0  0  0  0  0  0  0  0  0  0  0
    6.8990   -4.5180   26.9720 C   0  0  0  0  0  0  0  0  0  0  0  0
    6.3400   -5.8730   27.3260 C   0  0  1  0  0  0  0  0  0  0  0  0
    5.2060   -5.9160   28.3170 C   0  0  0  0  0  0  0  0  0  0  0  0
    4.9310   -6.1750   26.8850 C   0  0  0  0  0  0  0  0  0  0  0  0
    9.0180   -3.6870   24.0510 C   0  0  0  0  0  0  0  0  0  0  0  0
    9.4660   -2.6630   23.2340 C   0  0  0  0  0  0  0  0  0  0  0  0
   13.5340   -1.9460   24.7940 S   0  0  0  0  0  0  0  0  0  0  0  0
  3  2  1  0
  4  2  1  0
  4  1  1  0
  5  1  1  0
  8  7  1  0
  8  5  1  0
  9  7  1  0
 10  2  1  0
 11  9  1  0
 13 11  1  0
 14 13  1  0
 15 14  1  0
 15  7  1  0
 15  1  1  0
 16 10  1  0
 17 16  1  0
 18 17  1  0
 19 18  1  0
 20 17  1  0
 21 10  1  1
 22 21  1  0
 23 22  1  0
 24 23  1  0
 24 12  1  0
 25 12  1  0
 25  6  1  0
 26 25  1  6
 27 26  1  0
 28 27  1  0
 28 26  1  0
 29 24  1  0
 30 29  1  0
 30 21  1  0
 31 20  1  0
 31 19  1  0
M  END
$$$$
