
     RDKit          3D

 14 15  0  0  0  0  0  0  0  0999 V2000
   29.2280   55.3860   -5.9320 O   0  0  0  0  0  0  0  0  0  0  0  0
   29.3840   54.9080   -7.2680 C   0  0  0  0  0  0  0  0  0  0  0  0
   28.9700   53.4590   -7.4450 C   0  0  2  0  0  0  0  0  0  0  0  0
   27.9490   52.9700   -8.4570 C   0  0  0  0  0  0  0  0  0  0  0  0
   28.4990   51.6810   -9.0580 C   0  0  0  0  0  0  0  0  0  0  0  0
   28.7450   50.6280   -8.0610 N   0  0  0  0  0  0  0  0  0  0  0  0
   29.5550   51.0770   -6.9190 C   0  0  0  0  0  0  0  0  0  0  0  0
   29.1220   52.4120   -6.3540 C   0  0  0  0  0  0  0  0  0  0  0  0
   28.7010   49.3040   -8.4130 C   0  0  0  0  0  0  0  0  0  0  0  0
   28.1590   49.0100   -9.6200 N   0  0  0  0  0  0  0  0  0  0  0  0
   28.1860   47.7140   -9.9550 C   0  0  0  0  0  0  0  0  0  0  0  0
   28.7390   46.7290   -9.1620 C   0  0  0  0  0  0  0  0  0  0  0  0
   29.3150   47.1440   -7.9860 C   0  0  0  0  0  0  0  0  0  0  0  0
   29.3000   48.4220   -7.5680 N   0  0  0  0  0  0  0  0  0  0  0  0
  2  1  1  0
  3  2  1  1
  4  3  1  0
  5  4  1  0
  6  5  1  0
  7  6  1  0
  8  7  1  0
  8  3  1  0
  9  6  1  0
 10  9  2  0
 11 10  1  0
 12 11  2  0
 13 12  1  0
 14 13  2  0
 14  9  1  0
M  END
