
     RDKit          3D

 14 14  0  0  0  0  0  0  0  0999 V2000
    7.8590   -1.3260   23.5490 C   0  0  0  0  0  0  0  0  0  0  0  0
    9.0240   -2.1010   22.9380 C   0  0  2  0  0  0  0  0  0  0  0  0
    8.3190   -1.7770   20.5540 C   0  0  0  0  0  0  0  0  0  0  0  0
    7.9780   -2.4430   19.2190 C   0  0  0  0  0  0  0  0  0  0  0  0
   10.3540   -1.3660   22.9610 C   0  0  0  0  0  0  0  0  0  0  0  0
   10.5750   -0.2240   23.7220 C   0  0  0  0  0  0  0  0  0  0  0  0
   11.8150    0.3910   23.7250 C   0  0  0  0  0  0  0  0  0  0  0  0
   12.8610   -0.1290   22.9980 C   0  0  0  0  0  0  0  0  0  0  0  0
   12.6430   -1.2650   22.2600 C   0  0  0  0  0  0  0  0  0  0  0  0
   11.4150   -1.8820   22.2400 C   0  0  0  0  0  0  0  0  0  0  0  0
    8.6700   -2.5630   21.5820 N   0  0  0  0  0  0  0  0  0  0  0  0
    8.2530   -0.5450   20.6250 O   0  0  0  0  0  0  0  0  0  0  0  0
   13.9370   -1.9470   21.3220 Cl  0  0  0  0  0  0  0  0  0  0  0  0
    7.3450   -4.1530   19.3900 S   0  0  0  0  0  0  0  0  0  0  0  0
  2  1  1  6
  4  3  1  0
  5  2  1  0
  6  5  2  0
  7  6  1  0
  8  7  2  0
  9  8  1  0
 10  5  1  0
 10  9  2  0
 11  3  1  0
 11  2  1  0
 12  3  2  0
 13  9  1  0
  4 14  1  0
M  END
