
     RDKit          3D

 12 13  0  0  0  0  0  0  0  0999 V2000
   29.9150   49.7520   -4.6570 O   0  0  0  0  0  0  0  0  0  0  0  0
   29.4110   50.7820   -5.4600 C   0  0  0  0  0  0  0  0  0  0  0  0
   28.8340   50.5200   -6.7130 C   0  0  0  0  0  0  0  0  0  0  0  0
   28.3610   51.5910   -7.4890 C   0  0  0  0  0  0  0  0  0  0  0  0
   28.4640   52.9060   -7.0000 C   0  0  0  0  0  0  0  0  0  0  0  0
   27.9610   54.0740   -7.8220 C   0  0  0  0  0  0  0  0  0  0  0  0
   28.2730   55.4300   -7.4130 C   0  0  0  0  0  0  0  0  0  0  0  0
   28.7480   55.6470   -6.0200 C   0  0  0  0  0  0  0  0  0  0  0  0
   28.7730   56.7630   -5.6130 O   0  0  0  0  0  0  0  0  0  0  0  0
   29.1510   54.5140   -5.2210 O   0  0  0  0  0  0  0  0  0  0  0  0
   29.0440   53.1480   -5.7300 C   0  0  0  0  0  0  0  0  0  0  0  0
   29.5040   52.0790   -4.9800 C   0  0  0  0  0  0  0  0  0  0  0  0
  2  1  1  0
  3  2  1  0
  4  3  1  0
  5  4  1  0
  6  5  1  0
  7  6  1  0
  8  7  1  0
  9  8  1  0
 10  8  1  0
 11  5  1  0
 11 10  1  0
 12 11  1  0
 12  2  1  0
M  END
$$$$
