
     RDKit          3D

 30 33  0  0  0  0  0  0  0  0999 V2000
    8.7250    1.6120   20.7610 O   0  0  0  0  0  0  0  0  0  0  0  0
    8.3630    0.6550   21.4940 C   0  0  0  0  0  0  0  0  0  0  0  0
    8.9740    0.4080   22.7040 N   0  0  0  0  0  0  0  0  0  0  0  0
    8.4990   -0.6860   23.4990 C   0  0  2  0  0  0  0  0  0  0  0  0
    8.8180   -2.0400   23.2940 C   0  0  0  0  0  0  0  0  0  0  0  0
    8.2670   -3.1170   24.0700 C   0  0  0  0  0  0  0  0  0  0  0  0
    7.3230   -2.8820   25.1130 C   0  0  0  0  0  0  0  0  0  0  0  0
    6.7180   -3.9650   25.9260 N   0  0  0  0  0  0  0  0  0  0  0  0
    5.6030   -3.8790   26.8160 C   0  0  0  0  0  0  0  0  0  0  0  0
    4.9600   -5.0360   27.6370 C   0  0  0  0  0  0  0  0  0  0  0  0
    3.4450   -5.2700   27.5140 C   0  0  0  0  0  0  0  0  0  0  0  0
    5.0670   -2.7720   27.0060 O   0  0  0  0  0  0  0  0  0  0  0  0
    6.9840   -1.5290   25.2750 C   0  0  0  0  0  0  0  0  0  0  0  0
    7.5370   -0.4790   24.5010 C   0  0  0  0  0  0  0  0  0  0  0  0
   10.1620    1.1760   23.1740 C   0  0  0  0  0  0  0  0  0  0  0  0
   11.3970    0.2830   23.2470 C   0  0  1  0  0  0  0  0  0  0  0  0
   11.6660   -0.4490   24.3330 C   0  0  0  0  0  0  0  0  0  0  0  0
   13.0480   -1.4220   24.1790 S   0  0  0  0  0  0  0  0  0  0  0  0
   13.2930   -0.9060   22.5820 C   0  0  0  0  0  0  0  0  0  0  0  0
   12.3330   -0.0140   22.2330 C   0  0  0  0  0  0  0  0  0  0  0  0
    7.1750   -0.1880   20.9140 C   0  0  0  0  0  0  0  0  0  0  0  0
    6.5020    0.2720   19.7700 N   0  0  0  0  0  0  0  0  0  0  0  0
    6.9590    0.0300   18.4710 N   0  0  0  0  0  0  0  0  0  0  0  0
    6.1950    0.5630   17.6290 N   0  0  0  0  0  0  0  0  0  0  0  0
    5.1320    1.2650   18.3470 C   0  0  0  0  0  0  0  0  0  0  0  0
    5.3730    1.0600   19.6980 C   0  0  0  0  0  0  0  0  0  0  0  0
    4.5210    1.6090   20.6810 C   0  0  0  0  0  0  0  0  0  0  0  0
    3.4200    2.3570   20.2720 C   0  0  0  0  0  0  0  0  0  0  0  0
    3.1870    2.5730   18.8970 C   0  0  0  0  0  0  0  0  0  0  0  0
    4.0360    2.0200   17.9340 C   0  0  0  0  0  0  0  0  0  0  0  0
  2  1  1  0
  3  2  1  0
  4  3  1  6
  5  4  1  0
  6  5  1  0
  7  6  1  0
  8  7  1  0
  9  8  1  0
 10  9  1  0
 11 10  1  0
 12  9  1  0
 13  7  1  0
 14 13  1  0
 14  4  1  0
 15  3  1  0
 16 15  1  6
 17 16  1  0
 18 17  1  0
 19 18  1  0
 20 19  1  0
 20 16  1  0
 21  2  1  0
 22 21  1  0
 23 22  1  0
 24 23  1  0
 25 24  1  0
 26 25  1  0
 26 22  1  0
 27 26  1  0
 28 27  1  0
 29 28  1  0
 30 29  1  0
 30 25  1  0
M  END
