
     RDKit          3D

 21 22  0  0  0  0  0  0  0  0999 V2000
    7.1320   -1.4270   21.5480 N   0  0  0  0  0  0  0  0  0  0  0  0
   11.1920    0.3850   23.1050 C   0  0  0  0  0  0  0  0  0  0  0  0
    4.6570    0.6010   20.4130 C   0  0  0  0  0  0  0  0  0  0  0  0
    9.4370   -1.1350   22.7570 O   0  0  0  0  0  0  0  0  0  0  0  0
    7.4480   -2.3970   22.5880 C   0  0  0  0  0  0  0  0  0  0  0  0
    6.5530    1.2320   16.8830 O   0  0  0  0  0  0  0  0  0  0  0  0
   12.5390    0.7230   23.0750 C   0  0  0  0  0  0  0  0  0  0  0  0
   10.7930   -0.9370   22.8230 C   0  0  0  0  0  0  0  0  0  0  0  0
   11.7480   -1.9030   22.5450 C   0  0  0  0  0  0  0  0  0  0  0  0
   13.0880   -1.5480   22.5110 C   0  0  0  0  0  0  0  0  0  0  0  0
    5.6670   -0.3240   19.9850 C   0  0  0  0  0  0  0  0  0  0  0  0
    5.9830    0.9560   17.9460 C   0  0  0  0  0  0  0  0  0  0  0  0
    6.0200   -1.5140   20.8180 C   0  0  0  0  0  0  0  0  0  0  0  0
    4.3590    1.6290   19.5960 C   0  0  0  0  0  0  0  0  0  0  0  0
    6.2990   -0.1420   18.7830 C   0  0  0  0  0  0  0  0  0  0  0  0
   10.4970    2.6280   23.5860 C   0  0  0  0  0  0  0  0  0  0  0  0
    5.0000    1.7970   18.4100 N   0  0  0  0  0  0  0  0  0  0  0  0
   10.1690    1.2540   23.3760 O   0  0  0  0  0  0  0  0  0  0  0  0
    5.2830   -2.4980   20.8570 O   0  0  0  0  0  0  0  0  0  0  0  0
    8.9230   -2.4730   22.8470 C   0  0  0  0  0  0  0  0  0  0  0  0
   13.4780   -0.2470   22.7680 C   0  0  0  0  0  0  0  0  0  0  0  0
  5  1  1  0
  7  2  2  0
  8  4  1  0
  8  2  1  0
  9  8  2  0
 10  9  1  0
 11  3  1  0
 12  6  2  0
 13 11  1  0
 13  1  1  0
 14  3  2  0
 15 12  1  0
 15 11  2  0
 17 14  1  0
 17 12  1  0
 18 16  1  0
 18  2  1  0
 19 13  2  0
 20  5  1  0
 20  4  1  0
 21 10  2  0
 21  7  1  0
M  END
