
     RDKit          3D

 14 14  0  0  0  0  0  0  0  0999 V2000
   13.6720   -2.4180   24.3080 C   0  0  0  0  0  0  0  0  0  0  0  0
   13.1870   -1.1210   24.5590 O   0  0  0  0  0  0  0  0  0  0  0  0
   13.3080   -0.1870   23.5200 C   0  0  0  0  0  0  0  0  0  0  0  0
   14.0040   -0.4020   22.5910 O   0  0  0  0  0  0  0  0  0  0  0  0
   12.5520    1.1370   23.6030 C   0  0  0  0  0  0  0  0  0  0  0  0
   11.3330    1.2080   24.2650 C   0  0  0  0  0  0  0  0  0  0  0  0
   10.6600    2.4200   24.3440 C   0  0  0  0  0  0  0  0  0  0  0  0
   11.2120    3.5530   23.7560 C   0  0  0  0  0  0  0  0  0  0  0  0
   12.4310    3.4790   23.0950 C   0  0  0  0  0  0  0  0  0  0  0  0
   13.0980    2.2720   23.0230 C   0  0  0  0  0  0  0  0  0  0  0  0
   10.3520    5.1430   23.8530 S   0  0  2  0  0  0  0  0  0  0  0  0
   11.2290    6.2450   23.4440 O   0  0  0  0  0  0  0  0  0  0  0  0
   10.0650    5.4770   25.2490 O   0  0  0  0  0  0  0  0  0  0  0  0
    8.9300    5.1200   22.9070 N   0  0  0  0  0  0  0  0  0  0  0  0
  2  1  1  0
  3  2  1  0
  4  3  2  0
  5  3  1  0
  6  5  2  0
  7  6  1  0
  8  7  2  0
  9  8  1  0
 10  9  2  0
 10  5  1  0
 11  8  1  0
 12 11  2  0
 13 11  2  0
 11 14  1  6
M  END
