
     RDKit          3D

 15 16  0  0  0  0  0  0  0  0999 V2000
   20.2720   45.6700    8.3740 F   0  0  0  0  0  0  0  0  0  0  0  0
   20.5900   46.6110    9.2770 C   0  0  0  0  0  0  0  0  0  0  0  0
   20.5620   47.9280    8.8910 C   0  0  0  0  0  0  0  0  0  0  0  0
   20.9540   48.8910    9.8060 C   0  0  0  0  0  0  0  0  0  0  0  0
   21.3680   48.5230   11.0780 C   0  0  0  0  0  0  0  0  0  0  0  0
   21.3890   47.1870   11.4590 C   0  0  0  0  0  0  0  0  0  0  0  0
   20.9910   46.2020   10.5600 C   0  0  2  0  0  0  0  0  0  0  0  0
   21.0810   44.8160   10.9200 N   0  0  0  0  0  0  0  0  0  0  0  0
   22.2150   43.9830   10.4880 C   0  0  0  0  0  0  0  0  0  0  0  0
   22.2590   42.8980   11.5540 C   0  0  0  0  0  0  0  0  0  0  0  0
   20.2040   44.1360   11.7240 C   0  0  0  0  0  0  0  0  0  0  0  0
   19.1450   44.5620   12.1390 O   0  0  0  0  0  0  0  0  0  0  0  0
   20.8010   42.7660   12.0230 C   0  0  2  0  0  0  0  0  0  0  0  0
   20.6340   42.4080   13.4390 N   0  0  0  0  0  0  0  0  0  0  0  0
   20.8230   41.0000   13.7870 C   0  0  0  0  0  0  0  0  0  0  0  0
  2  1  1  0
  3  2  1  0
  4  3  1  0
  5  4  1  0
  6  5  1  0
  7  2  1  0
  7  6  1  0
  7  8  1  6
  9  8  1  0
 10  9  1  0
 11  8  1  0
 12 11  1  0
 13 11  1  0
 13 10  1  0
 13 14  1  1
 15 14  1  0
M  END
$$$$
