
     RDKit          3D

  7  7  0  0  0  0  0  0  0  0999 V2000
   29.2820   50.9680   -5.8300 O   0  0  0  0  0  0  0  0  0  0  0  0
   28.8030   50.8940   -6.9510 C   0  0  0  0  0  0  0  0  0  0  0  0
   28.0600   51.8320   -7.5440 N   0  0  0  0  0  0  0  0  0  0  0  0
   27.6270   51.4350   -8.8620 C   0  0  0  0  0  0  0  0  0  0  0  0
   28.9220   49.8370   -7.8280 N   0  0  0  0  0  0  0  0  0  0  0  0
   28.2720   50.0630   -9.0040 C   0  0  0  0  0  0  0  0  0  0  0  0
   28.2610   49.2850   -9.9600 O   0  0  0  0  0  0  0  0  0  0  0  0
  2  1  2  0
  3  2  1  0
  4  3  1  0
  5  2  1  0
  6  5  1  0
  6  4  1  0
  7  6  2  0
M  END
