
     RDKit          3D

  8  8  0  0  0  0  0  0  0  0999 V2000
   28.9300   54.7900   -8.7870 N   0  0  0  0  0  0  0  0  0  0  0  0
   29.4360   53.5940   -8.1360 C   0  0  0  0  0  0  0  0  0  0  0  0
   28.3040   52.6450   -7.7560 C   0  0  0  0  0  0  0  0  0  0  0  0
   28.8330   51.3870   -7.0250 C   0  0  0  0  0  0  0  0  0  0  0  0
   29.0540   50.1570   -7.5850 C   0  0  0  0  0  0  0  0  0  0  0  0
   29.5200   49.3660   -6.6490 N   0  0  0  0  0  0  0  0  0  0  0  0
   29.6230   50.0590   -5.5320 C   0  0  0  0  0  0  0  0  0  0  0  0
   29.1910   51.2940   -5.7600 N   0  0  0  0  0  0  0  0  0  0  0  0
  2  1  1  0
  3  2  1  0
  4  3  1  0
  5  4  1  0
  6  5  1  0
  7  6  1  0
  8  7  1  0
  8  4  1  0
M  END
