
     RDKit          3D

 18 19  0  0  0  0  0  0  0  0999 V2000
    6.3150    0.5640   17.4130 N   0  0  0  0  0  0  0  0  0  0  0  0
    3.6250    2.3220   19.4190 C   0  0  0  0  0  0  0  0  0  0  0  0
    8.9550    0.7560   21.0010 O   0  0  0  0  0  0  0  0  0  0  0  0
   13.8030   -1.7540   21.2230 Cl  0  0  0  0  0  0  0  0  0  0  0  0
    4.7960    1.4340   19.0720 C   0  0  0  0  0  0  0  0  0  0  0  0
    7.2800   -0.7410   20.7250 N   0  0  0  0  0  0  0  0  0  0  0  0
    5.2630    1.3130   17.7690 C   0  0  0  0  0  0  0  0  0  0  0  0
    6.9440   -0.1140   18.3760 C   0  0  0  0  0  0  0  0  0  0  0  0
    6.5560   -0.0820   19.7100 C   0  0  0  0  0  0  0  0  0  0  0  0
    8.3750   -0.2670   21.3450 C   0  0  0  0  0  0  0  0  0  0  0  0
    8.8270   -1.0720   22.5460 C   0  0  0  0  0  0  0  0  0  0  0  0
   10.2840   -0.7840   22.8280 C   0  0  0  0  0  0  0  0  0  0  0  0
   10.6600    0.1030   23.8260 C   0  0  0  0  0  0  0  0  0  0  0  0
   11.9950    0.4380   24.0100 C   0  0  0  0  0  0  0  0  0  0  0  0
   12.9710   -0.1020   23.1870 C   0  0  0  0  0  0  0  0  0  0  0  0
   12.5900   -1.0060   22.2200 C   0  0  0  0  0  0  0  0  0  0  0  0
   11.2690   -1.3570   22.0330 C   0  0  0  0  0  0  0  0  0  0  0  0
    5.4610    0.7060   20.0460 C   0  0  0  0  0  0  0  0  0  0  0  0
  5  2  1  0
  7  5  1  0
  7  1  2  0
  8  1  1  0
  9  8  2  0
  9  6  1  0
 10  6  1  0
 10  3  2  0
 11 10  1  0
 12 11  1  0
 13 12  2  0
 14 13  1  0
 15 14  2  0
 16  4  1  0
 16 15  1  0
 17 12  1  0
 17 16  2  0
 18  5  2  0
 18  9  1  0
M  END
