
     RDKit          3D

 14 14  0  0  0  0  0  0  0  0999 V2000
   31.0540   48.0060   -2.3320 O   0  0  0  0  0  0  0  0  0  0  0  0
   30.9740   47.7890   -3.7520 S   0  0  1  0  0  0  0  0  0  0  0  0
   32.1640   47.3950   -4.4570 O   0  0  0  0  0  0  0  0  0  0  0  0
   29.8680   46.6420   -3.9920 N   0  0  0  0  0  0  0  0  0  0  0  0
   30.3960   49.2880   -4.4910 C   0  0  0  0  0  0  0  0  0  0  0  0
   29.9530   50.3210   -3.6800 C   0  0  0  0  0  0  0  0  0  0  0  0
   29.5420   51.5080   -4.2570 C   0  0  0  0  0  0  0  0  0  0  0  0
   30.4060   49.4300   -5.8730 C   0  0  0  0  0  0  0  0  0  0  0  0
   29.9800   50.6210   -6.4370 C   0  0  0  0  0  0  0  0  0  0  0  0
   29.5660   51.6760   -5.6380 C   0  0  0  0  0  0  0  0  0  0  0  0
   29.2490   53.0240   -6.1910 C   0  0  0  0  0  0  0  0  0  0  0  0
   29.3570   54.0280   -5.4940 O   0  0  0  0  0  0  0  0  0  0  0  0
   28.8440   53.0760   -7.4560 N   0  0  0  0  0  0  0  0  0  0  0  0
   28.4350   54.3190   -8.0820 C   0  0  0  0  0  0  0  0  0  0  0  0
  2  1  2  0
  3  2  2  0
  2  4  1  1
  5  2  1  0
  6  5  2  0
  7  6  1  0
  8  5  1  0
  9  8  2  0
 10  9  1  0
 10  7  2  0
 11 10  1  0
 12 11  2  0
 13 11  1  0
 14 13  1  0
M  END
