
     RDKit          3D

 17 18  0  0  0  0  0  0  0  0999 V2000
   32.6740   47.2030   -6.4510 C   0  0  0  0  0  0  0  0  0  0  0  0
   32.6790   46.7700   -4.9760 C   0  0  1  0  0  0  0  0  0  0  0  0
   33.2080   47.8480   -4.0150 C   0  0  0  0  0  0  0  0  0  0  0  0
   31.3910   46.5060   -4.5180 O   0  0  0  0  0  0  0  0  0  0  0  0
   30.9640   45.2560   -4.7860 C   0  0  0  0  0  0  0  0  0  0  0  0
   29.8330   45.3530   -5.7260 C   0  0  0  0  0  0  0  0  0  0  0  0
   29.5160   46.4700   -6.6160 N   0  0  0  0  0  0  0  0  0  0  0  0
   29.2050   47.9030   -6.4040 C   0  0  0  0  0  0  0  0  0  0  0  0
   28.7620   48.6840   -7.4400 C   0  0  0  0  0  0  0  0  0  0  0  0
   28.5730   48.0380   -8.7950 C   0  0  0  0  0  0  0  0  0  0  0  0
   28.1850   48.6090   -9.6960 O   0  0  0  0  0  0  0  0  0  0  0  0
   28.8010   46.6710   -8.9410 N   0  0  0  0  0  0  0  0  0  0  0  0
   29.3000   45.8950   -7.8900 C   0  0  0  0  0  0  0  0  0  0  0  0
   29.6930   44.3580   -8.1430 S   0  0  0  0  0  0  0  0  0  0  0  0
   28.6190   49.9460   -6.9980 N   0  0  0  0  0  0  0  0  0  0  0  0
   28.9140   50.0210   -5.7110 C   0  0  0  0  0  0  0  0  0  0  0  0
   29.2860   48.7540   -5.3140 C   0  0  0  0  0  0  0  0  0  0  0  0
  2  1  1  6
  3  2  1  0
  4  2  1  0
  5  4  1  0
  6  5  1  0
  7  6  1  0
  8  7  1  0
  9  8  2  0
 10  9  1  0
 11 10  2  0
 12 10  1  0
 13 12  1  0
 13  7  1  0
 14 13  2  0
 15  9  1  0
 16 15  1  0
 17  8  1  0
 17 16  2  0
M  END
