
     RDKit          3D

 18 19  0  0  0  0  0  0  0  0999 V2000
   14.3850   -1.8370   20.5130 N   0  0  0  0  0  0  0  0  0  0  0  0
    8.5160    0.1480   21.5450 C   0  0  0  0  0  0  0  0  0  0  0  0
    9.1230    1.0960   21.0480 O   0  0  0  0  0  0  0  0  0  0  0  0
    9.0010   -0.5550   22.7980 C   0  0  0  0  0  0  0  0  0  0  0  0
    7.3650   -0.3470   21.0450 N   0  0  0  0  0  0  0  0  0  0  0  0
   10.4930   -0.4090   22.9900 C   0  0  0  0  0  0  0  0  0  0  0  0
    6.5300    0.5950   17.5850 N   0  0  0  0  0  0  0  0  0  0  0  0
   11.0060    0.3330   24.0480 C   0  0  0  0  0  0  0  0  0  0  0  0
   12.3730    0.4910   24.2090 C   0  0  0  0  0  0  0  0  0  0  0  0
   13.2490   -0.0910   23.3080 C   0  0  0  0  0  0  0  0  0  0  0  0
   12.7490   -0.8330   22.2410 C   0  0  0  0  0  0  0  0  0  0  0  0
   13.6470   -1.3960   21.2650 C   0  0  0  0  0  0  0  0  0  0  0  0
   11.3740   -0.9980   22.0880 C   0  0  0  0  0  0  0  0  0  0  0  0
    6.6370    0.1600   19.9500 C   0  0  1  0  0  0  0  0  0  0  0  0
    5.4700    0.8910   20.1420 C   0  0  0  0  0  0  0  0  0  0  0  0
    4.8490    1.4750   19.0520 C   0  0  0  0  0  0  0  0  0  0  0  0
    5.4140    1.3010   17.8000 C   0  0  0  0  0  0  0  0  0  0  0  0
    7.1180    0.0330   18.6470 C   0  0  0  0  0  0  0  0  0  0  0  0
  3  2  1  0
  4  2  1  0
  5  2  1  0
  6  4  1  0
  8  6  1  0
  9  8  1  0
 10  9  1  0
 11 10  1  0
 12  1  1  0
 12 11  1  0
 13  6  1  0
 13 11  1  0
 14  5  1  1
 15 14  1  0
 16 15  1  0
 17 16  1  0
 17  7  1  0
 18 14  1  0
 18  7  1  0
M  END
$$$$
