
     RDKit          3D

 25 28  0  0  0  0  0  0  0  0999 V2000
    7.5750   -1.5520   21.4260 N   0  0  0  0  0  0  0  0  0  0  0  0
    6.3200   -1.5160   20.9270 C   0  0  0  0  0  0  0  0  0  0  0  0
    5.5220   -2.4270   21.1190 O   0  0  0  0  0  0  0  0  0  0  0  0
    8.6620   -0.6170   21.0770 C   0  0  0  0  0  0  0  0  0  0  0  0
    9.7810   -1.2660   23.1800 N   0  0  0  0  0  0  0  0  0  0  0  0
    6.5830    0.9330   16.7880 O   0  0  0  0  0  0  0  0  0  0  0  0
    9.3900   -0.1350   22.3300 C   0  0  0  0  0  0  0  0  0  0  0  0
    5.0890    1.6440   18.3220 N   0  0  0  0  0  0  0  0  0  0  0  0
    8.6840   -2.1760   23.5290 C   0  0  0  0  0  0  0  0  0  0  0  0
    7.9950   -2.6790   22.2720 C   0  0  0  0  0  0  0  0  0  0  0  0
   11.1110   -1.5740   23.4730 C   0  0  0  0  0  0  0  0  0  0  0  0
   12.1280   -1.2700   22.5620 C   0  0  0  0  0  0  0  0  0  0  0  0
   13.4420   -1.6020   22.8560 C   0  0  0  0  0  0  0  0  0  0  0  0
   13.7600   -2.2250   24.0470 C   0  0  0  0  0  0  0  0  0  0  0  0
   12.7650   -2.5270   24.9530 C   0  0  0  0  0  0  0  0  0  0  0  0
   11.4430   -2.2050   24.6790 C   0  0  0  0  0  0  0  0  0  0  0  0
    5.8900   -0.3630   20.0560 C   0  0  1  0  0  0  0  0  0  0  0  0
    6.4270   -0.2490   18.8130 C   0  0  0  0  0  0  0  0  0  0  0  0
    6.0540    0.7750   17.8910 C   0  0  0  0  0  0  0  0  0  0  0  0
    4.4900    1.5970   19.5710 C   0  0  0  0  0  0  0  0  0  0  0  0
    4.8660    0.5910   20.4830 C   0  0  0  0  0  0  0  0  0  0  0  0
    4.2300    0.5280   21.7220 C   0  0  0  0  0  0  0  0  0  0  0  0
    3.2410    1.4440   22.0430 C   0  0  0  0  0  0  0  0  0  0  0  0
    2.8870    2.4330   21.1520 C   0  0  0  0  0  0  0  0  0  0  0  0
    3.5040    2.5200   19.9160 C   0  0  0  0  0  0  0  0  0  0  0  0
  2  1  1  0
  3  2  1  0
  4  1  1  0
  7  4  1  0
  7  5  1  0
  9  5  1  0
 10  1  1  0
 10  9  1  0
 11  5  1  0
 12 11  1  0
 13 12  1  0
 14 13  1  0
 15 14  1  0
 16 15  1  0
 16 11  1  0
 17  2  1  6
 18 17  1  0
 19  8  1  0
 19 18  1  0
 19  6  1  0
 20  8  1  0
 21 20  1  0
 21 17  1  0
 22 21  1  0
 23 22  1  0
 24 23  1  0
 25 24  1  0
 25 20  1  0
M  END
$$$$
