
     RDKit          3D

  9  8  0  0  0  0  0  0  0  0999 V2000
   -0.1340    6.2840   -8.3190 N   0  0  0  0  0  0  0  0  0  0  0  0
   -0.3690    5.2710   -7.3000 C   0  0  2  0  0  0  0  0  0  0  0  0
    0.6300    4.6920   -6.3100 C   0  0  0  0  0  0  0  0  0  0  0  0
    0.1810    4.0600   -5.3720 O   0  0  0  0  0  0  0  0  0  0  0  0
   -0.7240    4.0970   -8.2280 C   0  0  0  0  0  0  0  0  0  0  0  0
   -1.8870    3.2940   -7.7420 C   0  0  0  0  0  0  0  0  0  0  0  0
   -2.8440    3.8420   -7.2070 O   0  0  0  0  0  0  0  0  0  0  0  0
   -1.8350    1.8490   -7.9440 O   0  0  0  0  0  0  0  0  0  0  0  0
   -2.9480    1.0620   -7.5820 C   0  0  0  0  0  0  0  0  0  0  0  0
  2  1  1  6
  3  2  1  0
  4  3  1  0
  5  2  1  0
  6  5  1  0
  7  6  1  0
  8  6  1  0
  9  8  1  0
M  END
$$$$
