
     RDKit          3D

 15 16  0  0  0  0  0  0  0  0999 V2000
   23.7940   -8.0980    3.6080 N   0  0  0  0  0  0  0  0  0  0  0  0
   25.1620   -7.2240    5.4560 C   0  0  0  0  0  0  0  0  0  0  0  0
   23.7440   -7.2630    4.8440 C   0  0  2  0  0  0  0  0  0  0  0  0
   23.8530   -6.0290    2.3490 N   0  0  0  0  0  0  0  0  0  0  0  0
   22.6600   -7.7230    5.8480 C   0  0  0  0  0  0  0  0  0  0  0  0
   24.3590   -5.8910   -0.0590 N   0  0  0  0  0  0  0  0  0  0  0  0
   24.1970   -9.5240    3.7670 C   0  0  0  0  0  0  0  0  0  0  0  0
   24.8160   -8.1490   -1.0650 N   0  0  0  0  0  0  0  0  0  0  0  0
   24.0060   -7.4200    2.3680 C   0  0  0  0  0  0  0  0  0  0  0  0
   24.8530   -9.4530   -0.6370 N   0  0  0  0  0  0  0  0  0  0  0  0
   24.0360   -5.3740    1.1510 C   0  0  0  0  0  0  0  0  0  0  0  0
   24.5040   -7.2780   -0.0190 C   0  0  0  0  0  0  0  0  0  0  0  0
   25.1070   -7.7850   -2.4640 C   0  0  0  0  0  0  0  0  0  0  0  0
   24.5770   -9.4530    0.6790 C   0  0  0  0  0  0  0  0  0  0  0  0
   24.3420   -8.1080    1.1520 C   0  0  0  0  0  0  0  0  0  0  0  0
  3  1  1  0
  3  2  1  1
  5  3  1  0
  7  1  1  0
  9  4  1  0
  9  1  1  0
 10  8  1  0
 11  6  1  0
 11  4  1  0
 12  8  1  0
 12  6  1  0
 13  8  1  0
 14 10  1  0
 15 14  1  0
 15 12  1  0
 15  9  1  0
M  END
$$$$
