
     RDKit          3D

 31 32  0  0  0  0  0  0  0  0999 V2000
    9.0310    7.6600   24.9020 C   0  0  2  0  0  0  0  0  0  0  0  0
   10.0820    6.5220   25.1570 C   0  0  0  0  0  0  0  0  0  0  0  0
    9.5710    5.1590   24.6720 C   0  0  0  0  0  0  0  0  0  0  0  0
    9.0400    5.1770   23.2240 C   0  0  1  0  0  0  0  0  0  0  0  0
    8.5310    3.7870   22.8010 C   0  0  0  0  0  0  0  0  0  0  0  0
    9.2920    2.7070   23.3560 O   0  0  0  0  0  0  0  0  0  0  0  0
    9.5420    1.5970   22.6170 C   0  0  0  0  0  0  0  0  0  0  0  0
   10.0950    0.5050   23.1810 N   0  0  0  0  0  0  0  0  0  0  0  0
   10.1690   -0.7450   22.4420 C   0  0  1  0  0  0  0  0  0  0  0  0
   11.0010   -1.7570   23.2700 C   0  0  0  0  0  0  0  0  0  0  0  0
   12.4300   -1.3050   23.5670 C   0  0  1  0  0  0  0  0  0  0  0  0
   13.2990   -2.3820   24.1820 C   0  0  0  0  0  0  0  0  0  0  0  0
   13.1370   -0.7760   22.3370 C   0  0  0  0  0  0  0  0  0  0  0  0
    8.7740   -1.3100   22.0760 C   0  0  0  0  0  0  0  0  0  0  0  0
    8.5020   -1.8040   20.8470 N   0  0  0  0  0  0  0  0  0  0  0  0
    7.2470   -2.3550   20.4530 C   0  0  1  0  0  0  0  0  0  0  0  0
    6.6260   -1.5270   19.2630 C   0  0  0  0  0  0  0  0  0  0  0  0
    6.0840   -0.1880   19.7560 C   0  0  1  0  0  0  0  0  0  0  0  0
    5.5690    0.7010   18.6590 C   0  0  0  0  0  0  0  0  0  0  0  0
    4.3910    1.2710   19.0010 N   0  0  0  0  0  0  0  0  0  0  0  0
    3.9140    0.8590   20.3540 C   0  0  0  0  0  0  0  0  0  0  0  0
    4.8770   -0.3100   20.7010 C   0  0  0  0  0  0  0  0  0  0  0  0
    6.2380    0.8310   17.6110 O   0  0  0  0  0  0  0  0  0  0  0  0
    7.4920   -3.8760   20.0380 C   0  0  0  0  0  0  0  0  0  0  0  0
    6.2630   -4.4390   19.7280 O   0  0  0  0  0  0  0  0  0  0  0  0
    7.8770   -1.2950   22.9150 O   0  0  0  0  0  0  0  0  0  0  0  0
    9.2410    1.5870   21.4220 O   0  0  0  0  0  0  0  0  0  0  0  0
    7.9610    6.2610   23.1030 C   0  0  0  0  0  0  0  0  0  0  0  0
    8.4830    7.6260   23.4640 C   0  0  0  0  0  0  0  0  0  0  0  0
    9.5560    8.8620   25.1710 F   0  0  0  0  0  0  0  0  0  0  0  0
    8.0160    7.5740   25.7770 F   0  0  0  0  0  0  0  0  0  0  0  0
  2  1  1  0
  3  2  1  0
  4  3  1  0
  4  5  1  1
  6  5  1  0
  7  6  1  0
  8  7  1  0
  9  8  1  0
  9 10  1  1
 11 10  1  0
 11 12  1  6
 13 11  1  0
 14  9  1  0
 15 14  1  0
 16 15  1  0
 16 17  1  6
 18 17  1  6
 19 18  1  0
 20 19  1  0
 21 20  1  0
 22 21  1  0
 22 18  1  0
 23 19  1  0
 24 16  1  0
 25 24  1  0
 26 14  1  0
 27  7  1  0
 28  4  1  0
 29 28  1  0
 29  1  1  0
  1 30  1  1
 31  1  1  0
M  END
$$$$
