
     RDKit          3D

 11 12  0  0  0  0  0  0  0  0999 V2000
   29.7210   46.2720   -8.1750 N   0  0  0  0  0  0  0  0  0  0  0  0
   29.2590   47.5340   -8.3460 C   0  0  0  0  0  0  0  0  0  0  0  0
   29.4580   48.4880   -7.3490 C   0  0  0  0  0  0  0  0  0  0  0  0
   29.0360   49.7970   -7.5640 C   0  0  0  0  0  0  0  0  0  0  0  0
   29.2470   50.8620   -6.5280 C   0  0  0  0  0  0  0  0  0  0  0  0
   29.1640   52.1610   -7.1140 O   0  0  0  0  0  0  0  0  0  0  0  0
   27.9260   52.3390   -7.7970 C   0  0  0  0  0  0  0  0  0  0  0  0
   27.8900   51.4910   -9.0480 C   0  0  0  0  0  0  0  0  0  0  0  0
   28.3780   50.0950   -8.7660 C   0  0  1  0  0  0  0  0  0  0  0  0
   28.2010   49.1880   -9.7570 N   0  0  0  0  0  0  0  0  0  0  0  0
   28.5850   47.9220   -9.5250 C   0  0  0  0  0  0  0  0  0  0  0  0
  2  1  1  0
  3  2  1  0
  4  3  1  0
  5  4  1  0
  6  5  1  0
  7  6  1  0
  8  7  1  0
  9  8  1  6
  9  4  1  0
 10  9  1  0
 11  2  1  0
 11 10  1  0
M  END
$$$$
