
     RDKit          3D

 10 10  0  0  0  0  0  0  0  0999 V2000
   -2.0380    8.5310  -14.5810 C   0  0  0  0  0  0  0  0  0  0  0  0
   -2.3520    8.8720  -15.9130 O   0  0  0  0  0  0  0  0  0  0  0  0
   -1.3480    9.7110  -16.6500 C   0  0  0  0  0  0  0  0  0  0  0  0
   -0.0110    8.9570  -17.0310 C   0  0  0  0  0  0  0  0  0  0  0  0
    0.1540    7.5430  -16.8930 C   0  0  0  0  0  0  0  0  0  0  0  0
    1.3570    6.9150  -17.2620 C   0  0  0  0  0  0  0  0  0  0  0  0
    2.4400    7.6450  -17.7920 C   0  0  0  0  0  0  0  0  0  0  0  0
    2.2960    9.0230  -17.9430 C   0  0  0  0  0  0  0  0  0  0  0  0
    1.0990    9.6500  -17.5680 C   0  0  0  0  0  0  0  0  0  0  0  0
   -1.2680    9.2340  -13.9850 O   0  0  0  0  0  0  0  0  0  0  0  0
  2  1  1  0
  3  2  1  0
  4  3  1  0
  5  4  1  0
  6  5  1  0
  7  6  1  0
  8  7  1  0
  9  8  1  0
  9  4  1  0
 10  1  1  0
M  END
