
     RDKit          3D

 19 20  0  0  0  0  0  0  0  0999 V2000
    6.7000   -4.1990   21.3320 N   0  0  0  0  0  0  0  0  0  0  0  0
    6.9620   -3.0330   19.1760 C   0  0  0  0  0  0  0  0  0  0  0  0
    5.5650   -4.9100   19.5150 O   0  0  0  0  0  0  0  0  0  0  0  0
    6.3560   -4.1260   20.0240 C   0  0  0  0  0  0  0  0  0  0  0  0
    5.9730   -2.7510   25.2580 N   0  0  0  0  0  0  0  0  0  0  0  0
    7.8290   -2.8250   26.5390 O   0  0  0  0  0  0  0  0  0  0  0  0
    6.0450   -5.1270   22.2670 C   0  0  0  0  0  0  0  0  0  0  0  0
    5.4420   -4.3720   23.4480 C   0  0  0  0  0  0  0  0  0  0  0  0
    6.5050   -3.5160   24.1240 C   0  0  0  0  0  0  0  0  0  0  0  0
    7.1210   -2.5730   23.1000 C   0  0  0  0  0  0  0  0  0  0  0  0
    7.7360   -3.3770   21.9660 C   0  0  0  0  0  0  0  0  0  0  0  0
    6.7820   -2.2590   26.2260 C   0  0  0  0  0  0  0  0  0  0  0  0
    6.4060   -0.9610   26.8730 C   0  0  0  0  0  0  0  0  0  0  0  0
    7.0670   -0.6140   28.0480 C   0  0  0  0  0  0  0  0  0  0  0  0
    6.7760    0.5750   28.6970 C   0  0  0  0  0  0  0  0  0  0  0  0
    5.8320    1.4320   28.1800 C   0  0  0  0  0  0  0  0  0  0  0  0
    5.1760    1.1060   27.0150 C   0  0  0  0  0  0  0  0  0  0  0  0
    5.4590   -0.0810   26.3570 C   0  0  0  0  0  0  0  0  0  0  0  0
    8.5970   -3.3950   18.4660 S   0  0  0  0  0  0  0  0  0  0  0  0
  4  3  2  0
  4  2  1  0
  4  1  1  0
  7  1  1  0
  8  7  1  0
  9  8  1  0
  9  5  1  0
 10  9  1  0
 11  1  1  0
 11 10  1  0
 12  6  2  0
 12  5  1  0
 13 12  1  0
 14 13  2  0
 15 14  1  0
 16 15  2  0
 17 16  1  0
 18 17  2  0
 18 13  1  0
  2 19  1  0
M  END
