
     RDKit          3D

 19 20  0  0  0  0  0  0  0  0999 V2000
    6.7670   -4.2380   21.3420 N   0  0  0  0  0  0  0  0  0  0  0  0
    7.0300   -3.0670   19.1890 C   0  0  0  0  0  0  0  0  0  0  0  0
    5.6300   -4.9420   19.5240 O   0  0  0  0  0  0  0  0  0  0  0  0
    6.4220   -4.1610   20.0340 C   0  0  0  0  0  0  0  0  0  0  0  0
    6.8550    0.5180   28.7180 C   0  0  0  0  0  0  0  0  0  0  0  0
    5.9120    1.3780   28.2040 C   0  0  0  0  0  0  0  0  0  0  0  0
    5.2550    1.0560   27.0390 C   0  0  0  0  0  0  0  0  0  0  0  0
    5.5360   -0.1300   26.3780 C   0  0  0  0  0  0  0  0  0  0  0  0
    6.1100   -5.1660   22.2750 C   0  0  0  0  0  0  0  0  0  0  0  0
    5.5090   -4.4130   23.4580 C   0  0  0  0  0  0  0  0  0  0  0  0
    6.5740   -3.5610   24.1360 C   0  0  1  0  0  0  0  0  0  0  0  0
    7.1910   -2.6170   23.1140 C   0  0  0  0  0  0  0  0  0  0  0  0
    7.8040   -3.4200   21.9780 C   0  0  0  0  0  0  0  0  0  0  0  0
    6.8540   -2.3100   26.2410 C   0  0  0  0  0  0  0  0  0  0  0  0
    6.4810   -1.0130   26.8910 C   0  0  0  0  0  0  0  0  0  0  0  0
    7.1430   -0.6700   28.0660 C   0  0  0  0  0  0  0  0  0  0  0  0
    6.0440   -2.7980   25.2720 N   0  0  0  0  0  0  0  0  0  0  0  0
    7.9000   -2.8790   26.5520 O   0  0  0  0  0  0  0  0  0  0  0  0
    8.6640   -3.4310   18.4780 S   0  0  0  0  0  0  0  0  0  0  0  0
  4  3  1  0
  4  2  1  0
  4  1  1  0
  6  5  1  0
  7  6  1  0
  8  7  1  0
  9  1  1  0
 10  9  1  0
 11 10  1  0
 12 11  1  0
 13  1  1  0
 13 12  1  0
 15 14  1  0
 15  8  1  0
 16 15  1  0
 16  5  1  0
 17 14  1  0
 11 17  1  1
 18 14  1  0
  2 19  1  0
M  END
$$$$
