
     RDKit          3D

 17 18  0  0  0  0  0  0  0  0999 V2000
    7.0950   -4.4980   20.9200 N   0  0  0  0  0  0  0  0  0  0  0  0
    7.9030   -2.7030   19.4870 C   0  0  0  0  0  0  0  0  0  0  0  0
    5.8110   -3.8180   19.1960 O   0  0  0  0  0  0  0  0  0  0  0  0
    6.8390   -3.7040   19.8700 C   0  0  0  0  0  0  0  0  0  0  0  0
   10.8620   -0.6610   23.7320 C   0  0  0  0  0  0  0  0  0  0  0  0
    7.9130   -2.9660   22.5450 C   0  0  0  0  0  0  0  0  0  0  0  0
    9.1520   -2.2110   22.8250 C   0  0  0  0  0  0  0  0  0  0  0  0
   10.3510   -2.1750   22.0490 C   0  0  0  0  0  0  0  0  0  0  0  0
   11.2970   -1.2790   22.6000 C   0  0  0  0  0  0  0  0  0  0  0  0
   12.6530   -0.9870   22.0430 C   0  0  0  0  0  0  0  0  0  0  0  0
   13.5050   -0.1950   23.0230 C   0  0  0  0  0  0  0  0  0  0  0  0
   12.7460    0.9060   23.6670 C   0  0  0  0  0  0  0  0  0  0  0  0
   11.6330    0.3530   24.5240 C   0  0  0  0  0  0  0  0  0  0  0  0
    8.0080   -4.1370   21.8930 N   0  0  0  0  0  0  0  0  0  0  0  0
    6.8170   -2.4900   22.8450 O   0  0  0  0  0  0  0  0  0  0  0  0
    9.2750   -1.1490   24.2090 S   0  0  0  0  0  0  0  0  0  0  0  0
    9.1010   -3.4030   18.3050 S   0  0  0  0  0  0  0  0  0  0  0  0
  4  3  2  0
  4  2  1  0
  4  1  1  0
  7  6  1  0
  8  7  2  0
  9  8  1  0
  9  5  2  0
 10  9  1  0
 11 10  1  0
 12 11  1  0
 13  5  1  0
 13 12  1  0
 14  1  1  0
 14  6  1  0
 15  6  2  0
 16  7  1  0
 16  5  1  0
  2 17  1  0
M  END
