
     RDKit          3D

 21 22  0  0  0  0  0  0  0  0999 V2000
   14.0090   -1.8010   21.4860 Cl  0  0  0  0  0  0  0  0  0  0  0  0
   12.9100   -0.6930   22.2530 C   0  0  0  0  0  0  0  0  0  0  0  0
   13.3970    0.4930   22.7660 C   0  0  0  0  0  0  0  0  0  0  0  0
   12.5040    1.3820   23.3440 C   0  0  0  0  0  0  0  0  0  0  0  0
   11.1560    1.0740   23.4130 C   0  0  0  0  0  0  0  0  0  0  0  0
   11.5680   -1.0170   22.3110 C   0  0  0  0  0  0  0  0  0  0  0  0
   10.6720   -0.1260   22.8950 C   0  0  0  0  0  0  0  0  0  0  0  0
    9.1720   -0.4280   22.9080 C   0  0  1  0  0  0  0  0  0  0  0  0
    8.9810   -1.8400   22.8820 O   0  0  0  0  0  0  0  0  0  0  0  0
    8.4960    0.1400   24.1760 C   0  0  0  0  0  0  0  0  0  0  0  0
    7.0650   -0.3310   24.3940 C   0  0  0  0  0  0  0  0  0  0  0  0
    8.5500    0.2320   21.6330 C   0  0  0  0  0  0  0  0  0  0  0  0
    8.9880    1.2980   21.2320 O   0  0  0  0  0  0  0  0  0  0  0  0
    7.5070   -0.4020   21.0520 N   0  0  0  0  0  0  0  0  0  0  0  0
    6.7550    0.1140   19.9680 C   0  0  0  0  0  0  0  0  0  0  0  0
    5.6210    0.9110   20.2250 C   0  0  0  0  0  0  0  0  0  0  0  0
    5.1130    1.1520   21.6230 C   0  0  0  0  0  0  0  0  0  0  0  0
    4.9880    1.4940   19.1320 C   0  0  0  0  0  0  0  0  0  0  0  0
    5.4850    1.2840   17.8630 C   0  0  0  0  0  0  0  0  0  0  0  0
    6.5490    0.5150   17.6040 N   0  0  0  0  0  0  0  0  0  0  0  0
    7.1570   -0.0620   18.6450 C   0  0  0  0  0  0  0  0  0  0  0  0
  2  1  1  0
  3  2  2  0
  4  3  1  0
  5  4  2  0
  6  2  1  0
  7  6  2  0
  7  5  1  0
  8  7  1  0
  8  9  1  6
 10  8  1  0
 11 10  1  0
 12  8  1  0
 13 12  2  0
 14 12  1  0
 15 14  1  0
 16 15  2  0
 17 16  1  0
 18 16  1  0
 19 18  2  0
 20 19  1  0
 21 20  2  0
 21 15  1  0
M  END
