
     RDKit          3D

 18 19  0  0  0  0  0  0  0  0999 V2000
    8.4210   -2.1870   23.1420 N   0  0  0  0  0  0  0  0  0  0  0  0
   11.2310    2.1700   24.6510 C   0  0  0  0  0  0  0  0  0  0  0  0
    5.7690   -4.1820   19.6650 O   0  0  0  0  0  0  0  0  0  0  0  0
   11.4630    0.7840   24.1210 C   0  0  0  0  0  0  0  0  0  0  0  0
    8.8030   -1.6510   21.8320 C   0  0  0  0  0  0  0  0  0  0  0  0
    6.4720   -3.1780   19.6930 C   0  0  0  0  0  0  0  0  0  0  0  0
    7.0910   -2.6640   18.4220 C   0  0  0  0  0  0  0  0  0  0  0  0
   10.4970   -0.2000   24.2610 C   0  0  0  0  0  0  0  0  0  0  0  0
   12.6420    0.4500   23.4710 C   0  0  0  0  0  0  0  0  0  0  0  0
   12.8480   -0.8220   22.9690 C   0  0  0  0  0  0  0  0  0  0  0  0
   11.8720   -1.7890   23.1220 C   0  0  0  0  0  0  0  0  0  0  0  0
   10.6940   -1.4930   23.7880 C   0  0  0  0  0  0  0  0  0  0  0  0
    9.6050   -2.5230   23.9370 C   0  0  0  0  0  0  0  0  0  0  0  0
    7.5600   -3.3610   22.9860 C   0  0  0  0  0  0  0  0  0  0  0  0
    6.3460   -3.0320   22.1500 C   0  0  0  0  0  0  0  0  0  0  0  0
    7.5880   -1.3340   20.9930 C   0  0  0  0  0  0  0  0  0  0  0  0
    6.7730   -2.5360   20.8450 N   0  0  0  0  0  0  0  0  0  0  0  0
    8.7950   -3.2800   18.3230 S   0  0  0  0  0  0  0  0  0  0  0  0
  4  2  1  0
  5  1  1  0
  6  3  2  0
  7  6  1  0
  8  4  2  0
  9  4  1  0
 10  9  2  0
 11 10  1  0
 12  8  1  0
 12 11  2  0
 13 12  1  0
 13  1  1  0
 14  1  1  0
 15 14  1  0
 16  5  1  0
 17 16  1  0
 17  6  1  0
 17 15  1  0
  7 18  1  0
M  END
