
     RDKit          3D

  9  8  0  0  0  0  0  0  0  0999 V2000
    6.8180   -3.8840   20.1130 C   0  0  0  0  0  0  0  0  0  0  0  0
    6.8770   -2.8120   21.1000 N   0  0  0  0  0  0  0  0  0  0  0  0
    8.1460   -2.1220   21.3380 C   0  0  0  0  0  0  0  0  0  0  0  0
    8.4060   -1.9910   22.8440 C   0  0  0  0  0  0  0  0  0  0  0  0
    9.8670   -2.1800   23.2820 C   0  0  0  0  0  0  0  0  0  0  0  0
   10.8170   -1.0690   22.8550 C   0  0  0  0  0  0  0  0  0  0  0  0
   12.1230   -1.0440   23.6490 C   0  0  0  0  0  0  0  0  0  0  0  0
   13.3650   -1.1460   22.7650 C   0  0  0  0  0  0  0  0  0  0  0  0
    5.8210   -4.4900   19.9030 O   0  0  0  0  0  0  0  0  0  0  0  0
  2  1  1  0
  3  2  1  0
  4  3  1  0
  5  4  1  0
  6  5  1  0
  7  6  1  0
  8  7  1  0
  9  1  1  0
M  END
$$$$
