
     RDKit          3D

 11 11  0  0  0  0  0  0  0  0999 V2000
   31.4050   45.4640   -7.8820 O   0  0  0  0  0  0  0  0  0  0  0  0
   32.4730   45.4170   -7.2880 C   0  0  0  0  0  0  0  0  0  0  0  0
   33.5370   45.6130   -7.9050 O   0  0  0  0  0  0  0  0  0  0  0  0
   32.5190   45.1330   -5.7960 C   0  0  0  0  0  0  0  0  0  0  0  0
   33.8490   44.9010   -5.3310 O   0  0  0  0  0  0  0  0  0  0  0  0
   34.6530   46.0310   -5.1480 C   0  0  0  0  0  0  0  0  0  0  0  0
   34.1770   47.3180   -5.0740 C   0  0  0  0  0  0  0  0  0  0  0  0
   35.0470   48.3960   -4.8660 C   0  0  0  0  0  0  0  0  0  0  0  0
   36.3710   48.1780   -4.6950 C   0  0  0  0  0  0  0  0  0  0  0  0
   36.8360   46.9150   -4.7910 C   0  0  0  0  0  0  0  0  0  0  0  0
   35.9820   45.8480   -5.0160 C   0  0  0  0  0  0  0  0  0  0  0  0
  2  1  1  0
  3  2  1  0
  4  2  1  0
  5  4  1  0
  6  5  1  0
  7  6  1  0
  8  7  1  0
  9  8  1  0
 10  9  1  0
 11 10  1  0
 11  6  1  0
M  CHG  1   1  -1
M  END
$$$$
