
     RDKit          3D

 22 23  0  0  0  0  0  0  0  0999 V2000
    7.4520   -2.6560   18.3800 C   0  0  0  0  0  0  0  0  0  0  0  0
    6.4570   -2.7960   19.5090 C   0  0  2  0  0  0  0  0  0  0  0  0
    5.3800   -3.3240   19.3700 O   0  0  0  0  0  0  0  0  0  0  0  0
    6.8150   -2.2260   20.6740 N   0  0  0  0  0  0  0  0  0  0  0  0
    6.3180   -2.7340   21.9500 C   0  0  0  0  0  0  0  0  0  0  0  0
    7.7490   -1.1090   20.8240 C   0  0  0  0  0  0  0  0  0  0  0  0
    8.9080   -1.5300   21.7060 C   0  0  0  0  0  0  0  0  0  0  0  0
    8.4510   -2.1200   22.9830 N   0  0  0  0  0  0  0  0  0  0  0  0
    7.4970   -3.2390   22.7640 C   0  0  1  0  0  0  0  0  0  0  0  0
    7.0750   -3.9310   24.0610 C   0  0  0  0  0  0  0  0  0  0  0  0
    6.0870   -5.0930   23.9070 C   0  0  1  0  0  0  0  0  0  0  0  0
    6.5450   -6.1380   22.8820 C   0  0  0  0  0  0  0  0  0  0  0  0
    5.8240   -5.7490   25.2520 C   0  0  0  0  0  0  0  0  0  0  0  0
    9.6020   -2.5020   23.8170 C   0  0  0  0  0  0  0  0  0  0  0  0
   10.7680   -1.5440   23.7270 C   0  0  0  0  0  0  0  0  0  0  0  0
   11.7720   -1.7480   22.7850 C   0  0  0  0  0  0  0  0  0  0  0  0
   12.7940   -0.8290   22.6630 C   0  0  0  0  0  0  0  0  0  0  0  0
   14.0450   -1.1130   21.4840 Cl  0  0  0  0  0  0  0  0  0  0  0  0
   12.8600    0.2910   23.4620 C   0  0  0  0  0  0  0  0  0  0  0  0
   11.8740    0.4830   24.4180 C   0  0  0  0  0  0  0  0  0  0  0  0
   10.8390   -0.4280   24.5490 C   0  0  0  0  0  0  0  0  0  0  0  0
    8.9200   -3.3920   18.4410 S   0  0  0  0  0  0  0  0  0  0  0  0
  2  1  1  0
  2  3  1  6
  4  2  1  0
  5  4  1  0
  6  4  1  0
  7  6  1  0
  8  7  1  0
  9  8  1  0
  9  5  1  0
  9 10  1  1
 11 10  1  0
 11 12  1  6
 13 11  1  0
 14  8  1  0
 15 14  1  0
 16 15  1  0
 17 16  1  0
 18 17  1  0
 19 17  1  0
 20 19  1  0
 21 15  1  0
 21 20  1  0
  1 22  1  0
M  END
