
     RDKit          3D

 29 30  0  0  0  0  0  0  0  0999 V2000
    6.9320    3.7270   22.7040 C   0  0  0  0  0  0  0  0  0  0  0  0
    5.9930    4.5140   22.0410 C   0  0  0  0  0  0  0  0  0  0  0  0
    4.6280    4.3310   22.2530 C   0  0  0  0  0  0  0  0  0  0  0  0
    4.2040    3.3390   23.1240 C   0  0  0  0  0  0  0  0  0  0  0  0
    5.1390    2.5420   23.7880 C   0  0  0  0  0  0  0  0  0  0  0  0
    6.5020    2.7330   23.5840 C   0  0  0  0  0  0  0  0  0  0  0  0
    8.4350    3.9620   22.4580 C   0  0  0  0  0  0  0  0  0  0  0  0
    9.2260    3.0480   23.2050 O   0  0  0  0  0  0  0  0  0  0  0  0
    9.6710    1.9240   22.4740 C   0  0  0  0  0  0  0  0  0  0  0  0
    9.6370    1.9220   21.2900 O   0  0  0  0  0  0  0  0  0  0  0  0
   10.1780    0.7490   23.1890 N   0  0  0  0  0  0  0  0  0  0  0  0
   10.3180   -0.4900   22.4490 C   0  0  1  0  0  0  0  0  0  0  0  0
   10.9430   -1.5700   23.3010 C   0  0  0  0  0  0  0  0  0  0  0  0
   12.4070   -1.2050   23.5510 C   0  0  2  0  0  0  0  0  0  0  0  0
   13.1620   -1.1740   22.2280 C   0  0  0  0  0  0  0  0  0  0  0  0
   13.0520   -2.2200   24.5020 C   0  0  0  0  0  0  0  0  0  0  0  0
    8.9140   -0.9410   22.0380 C   0  0  0  0  0  0  0  0  0  0  0  0
    8.0050   -0.8390   22.7950 O   0  0  0  0  0  0  0  0  0  0  0  0
    8.7310   -1.4860   20.6850 N   0  0  0  0  0  0  0  0  0  0  0  0
    7.4180   -1.9410   20.2230 C   0  0  2  0  0  0  0  0  0  0  0  0
    7.6240   -3.4220   19.8860 C   0  0  0  0  0  0  0  0  0  0  0  0
    6.3970   -4.0670   19.7220 O   0  0  0  0  0  0  0  0  0  0  0  0
    6.9740   -1.1240   18.9960 C   0  0  0  0  0  0  0  0  0  0  0  0
    6.5460    0.3340   19.4000 C   0  0  2  0  0  0  0  0  0  0  0  0
    5.2930    0.2840   20.2950 C   0  0  0  0  0  0  0  0  0  0  0  0
    4.6260    1.5880   20.1000 C   0  0  0  0  0  0  0  0  0  0  0  0
    4.9740    1.9940   18.6860 N   0  0  0  0  0  0  0  0  0  0  0  0
    6.1790    1.1780   18.2850 C   0  0  0  0  0  0  0  0  0  0  0  0
    6.7230    1.2570   17.2350 O   0  0  0  0  0  0  0  0  0  0  0  0
  2  1  1  0
  3  2  1  0
  4  3  1  0
  5  4  1  0
  6  5  1  0
  6  1  1  0
  7  1  1  0
  8  7  1  0
  9  8  1  0
 10  9  1  0
 11  9  1  0
 12 11  1  0
 12 13  1  1
 14 13  1  0
 14 15  1  6
 16 14  1  0
 17 12  1  0
 18 17  1  0
 19 17  1  0
 20 19  1  0
 20 21  1  6
 22 21  1  0
 23 20  1  0
 24 23  1  6
 25 24  1  0
 26 25  1  0
 27 26  1  0
 28 27  1  0
 28 24  1  0
 29 28  1  0
M  END
