
     RDKit          3D

 21 23  0  0  0  0  0  0  0  0999 V2000
    9.0340    0.9400   21.0070 O   0  0  0  0  0  0  0  0  0  0  0  0
    8.5240   -0.1200   21.3560 C   0  0  0  0  0  0  0  0  0  0  0  0
    9.0600   -0.9190   22.5290 C   0  0  0  0  0  0  0  0  0  0  0  0
   10.5320   -0.6670   22.7580 C   0  0  0  0  0  0  0  0  0  0  0  0
   10.9620    0.2350   23.7230 C   0  0  0  0  0  0  0  0  0  0  0  0
   12.3060    0.5580   23.8440 C   0  0  0  0  0  0  0  0  0  0  0  0
   13.2440   -0.0350   23.0130 C   0  0  0  0  0  0  0  0  0  0  0  0
   11.4770   -1.2830   21.9470 C   0  0  0  0  0  0  0  0  0  0  0  0
   12.8140   -0.9680   22.0910 C   0  0  0  0  0  0  0  0  0  0  0  0
   13.9900   -1.8410   21.1490 Cl  0  0  0  0  0  0  0  0  0  0  0  0
    7.4280   -0.6410   20.7650 N   0  0  0  0  0  0  0  0  0  0  0  0
    6.6610   -0.0720   19.7350 C   0  0  0  0  0  0  0  0  0  0  0  0
    5.4730    0.6450   20.0790 C   0  0  0  0  0  0  0  0  0  0  0  0
    4.9450    0.7250   21.3930 C   0  0  0  0  0  0  0  0  0  0  0  0
    3.7870    1.4160   21.6060 C   0  0  0  0  0  0  0  0  0  0  0  0
    3.0990    2.0510   20.6430 N   0  0  0  0  0  0  0  0  0  0  0  0
    3.5830    2.0090   19.4070 C   0  0  0  0  0  0  0  0  0  0  0  0
    4.7730    1.3190   19.0440 C   0  0  0  0  0  0  0  0  0  0  0  0
    5.3120    1.2450   17.7350 C   0  0  0  0  0  0  0  0  0  0  0  0
    6.4190    0.5730   17.4160 N   0  0  0  0  0  0  0  0  0  0  0  0
    7.0540   -0.0750   18.3970 C   0  0  0  0  0  0  0  0  0  0  0  0
  2  1  2  0
  3  2  1  0
  4  3  1  0
  5  4  2  0
  6  5  1  0
  7  6  2  0
  8  4  1  0
  9  8  2  0
  9  7  1  0
 10  9  1  0
 11  2  1  0
 12 11  1  0
 13 12  1  0
 14 13  2  0
 15 14  1  0
 16 15  2  0
 17 16  1  0
 18 17  2  0
 18 13  1  0
 19 18  1  0
 20 19  2  0
 21 20  1  0
 21 12  2  0
M  END
