
     RDKit          3D

 22 24  0  0  0  0  0  0  0  0999 V2000
    5.0660    0.9370   21.2640 N   0  0  0  0  0  0  0  0  0  0  0  0
    3.6510    1.2780   23.1910 C   0  0  0  0  0  0  0  0  0  0  0  0
    2.8550    1.4150   20.9390 O   0  0  0  0  0  0  0  0  0  0  0  0
    3.8060    1.2210   21.7000 C   0  0  0  0  0  0  0  0  0  0  0  0
    6.6430    0.5060   17.3900 N   0  0  0  0  0  0  0  0  0  0  0  0
    8.9720    1.3540   20.9610 O   0  0  0  0  0  0  0  0  0  0  0  0
    5.5560    0.7680   19.9440 C   0  0  0  0  0  0  0  0  0  0  0  0
    7.5140   -0.3870   20.8490 N   0  0  0  0  0  0  0  0  0  0  0  0
    4.9100    1.3260   18.8430 C   0  0  0  0  0  0  0  0  0  0  0  0
    5.5000    1.1750   17.6030 C   0  0  0  0  0  0  0  0  0  0  0  0
    7.2510   -0.0400   18.4490 C   0  0  0  0  0  0  0  0  0  0  0  0
    6.7620    0.0750   19.7460 C   0  0  0  0  0  0  0  0  0  0  0  0
    8.5450    0.2880   21.4030 C   0  0  0  0  0  0  0  0  0  0  0  0
    9.1390   -0.3750   22.6450 C   0  0  2  0  0  0  0  0  0  0  0  0
    9.3790    0.5770   23.8720 C   0  0  0  0  0  0  0  0  0  0  0  0
   10.8580    0.4670   23.5410 C   0  0  0  0  0  0  0  0  0  0  0  0
   12.1490    0.9140   23.8010 C   0  0  0  0  0  0  0  0  0  0  0  0
   13.2190    0.3880   23.0910 C   0  0  0  0  0  0  0  0  0  0  0  0
   12.9640   -0.6030   22.1610 C   0  0  0  0  0  0  0  0  0  0  0  0
   11.6990   -1.0700   21.8760 C   0  0  0  0  0  0  0  0  0  0  0  0
   10.6560   -0.4840   22.5830 C   0  0  0  0  0  0  0  0  0  0  0  0
   14.0160   -1.1810   21.5240 F   0  0  0  0  0  0  0  0  0  0  0  0
  4  3  2  0
  4  1  1  0
  4  2  1  0
  7  1  1  0
  9  7  2  0
 10  9  1  0
 10  5  2  0
 11  5  1  0
 12 11  2  0
 12  8  1  0
 12  7  1  0
 13  8  1  0
 13  6  2  0
 14 13  1  6
 15 14  1  0
 16 15  1  0
 17 16  2  0
 18 17  1  0
 19 18  2  0
 20 19  1  0
 21 16  1  0
 21 14  1  0
 21 20  2  0
 22 19  1  0
M  END
