
     RDKit          3D

 20 22  0  0  0  0  0  0  0  0999 V2000
    6.1510    0.7340   17.2390 N   0  0  0  0  0  0  0  0  0  0  0  0
    8.6490   -0.1290   21.0690 C   0  0  0  0  0  0  0  0  0  0  0  0
    8.8360    1.0650   20.8360 O   0  0  0  0  0  0  0  0  0  0  0  0
    7.6400   -0.9520   20.2940 C   0  0  0  0  0  0  0  0  0  0  0  0
    9.2690   -0.8050   22.0560 N   0  0  0  0  0  0  0  0  0  0  0  0
    6.7130   -0.1280   19.4320 C   0  0  0  0  0  0  0  0  0  0  0  0
    6.9110    0.0120   18.0720 C   0  0  0  0  0  0  0  0  0  0  0  0
    5.1160    1.3780   17.7580 C   0  0  0  0  0  0  0  0  0  0  0  0
    4.7720    1.3440   19.1260 C   0  0  0  0  0  0  0  0  0  0  0  0
    3.6730    2.0510   19.6700 C   0  0  0  0  0  0  0  0  0  0  0  0
    3.3930    1.9810   21.0030 C   0  0  0  0  0  0  0  0  0  0  0  0
    4.1880    1.2250   21.8520 C   0  0  0  0  0  0  0  0  0  0  0  0
    5.2600    0.5270   21.3680 C   0  0  0  0  0  0  0  0  0  0  0  0
    5.5910    0.5610   19.9880 C   0  0  0  0  0  0  0  0  0  0  0  0
   10.0680   -0.2290   23.0620 C   0  0  0  0  0  0  0  0  0  0  0  0
   11.4070    0.0610   22.8210 C   0  0  0  0  0  0  0  0  0  0  0  0
   12.1220    0.8170   23.7340 C   0  0  0  0  0  0  0  0  0  0  0  0
   11.5170    1.2730   24.8860 C   0  0  0  0  0  0  0  0  0  0  0  0
   10.1960    0.9650   25.1410 C   0  0  0  0  0  0  0  0  0  0  0  0
    9.4680    0.2100   24.2380 C   0  0  0  0  0  0  0  0  0  0  0  0
  3  2  2  0
  4  2  1  0
  5  2  1  0
  6  4  1  0
  7  6  1  0
  7  1  2  0
  8  1  1  0
  9  8  2  0
 10  9  1  0
 11 10  2  0
 12 11  1  0
 13 12  2  0
 14 13  1  0
 14  9  1  0
 14  6  2  0
 15  5  1  0
 16 15  2  0
 17 16  1  0
 18 17  2  0
 19 18  1  0
 20 19  2  0
 20 15  1  0
M  END
