
     RDKit          3D

 36 40  0  0  0  0  0  0  0  0999 V2000
    5.0500    0.8480   20.0190 C   0  0  0  0  0  0  0  0  0  0  0  0
    4.4070    1.3140   18.8850 C   0  0  0  0  0  0  0  0  0  0  0  0
    5.0100    1.1020   17.6580 C   0  0  0  0  0  0  0  0  0  0  0  0
    6.7960    0.0360   18.6340 C   0  0  0  0  0  0  0  0  0  0  0  0
    6.2720    0.1880   19.9090 C   0  0  0  0  0  0  0  0  0  0  0  0
    7.0220   -0.3000   21.0830 C   0  0  0  0  0  0  0  0  0  0  0  0
    6.6600   -0.1980   22.3890 C   0  0  0  0  0  0  0  0  0  0  0  0
    8.8600   -1.1530   22.0010 C   0  0  0  0  0  0  0  0  0  0  0  0
   10.8450   -2.0990   23.1880 C   0  0  0  0  0  0  0  0  0  0  0  0
   10.1840   -2.8200   24.1830 C   0  0  0  0  0  0  0  0  0  0  0  0
   10.8940   -3.3180   25.2720 C   0  0  0  0  0  0  0  0  0  0  0  0
   12.2590   -3.0710   25.3820 C   0  0  0  0  0  0  0  0  0  0  0  0
   12.9100   -2.3490   24.3960 C   0  0  0  0  0  0  0  0  0  0  0  0
   12.2160   -1.8460   23.2890 C   0  0  0  0  0  0  0  0  0  0  0  0
   12.9480   -1.0760   22.2270 C   0  0  0  0  0  0  0  0  0  0  0  0
    9.6160   -3.4840   27.3670 C   0  0  0  0  0  0  0  0  0  0  0  0
    8.9160   -4.4310   28.2930 C   0  0  0  0  0  0  0  0  0  0  0  0
    8.3530   -3.9960   29.4850 C   0  0  0  0  0  0  0  0  0  0  0  0
    7.7050   -4.8860   30.3290 C   0  0  0  0  0  0  0  0  0  0  0  0
    7.5940   -6.2330   29.9970 C   0  0  0  0  0  0  0  0  0  0  0  0
    6.1830    0.4740   17.5210 N   0  0  0  0  0  0  0  0  0  0  0  0
    8.2610   -0.9110   20.8680 N   0  0  0  0  0  0  0  0  0  0  0  0
   10.1450   -1.5920   22.0680 N   0  0  0  0  0  0  0  0  0  0  0  0
   10.2150   -4.0310   26.2830 N   0  0  0  0  0  0  0  0  0  0  0  0
    9.6330   -2.2770   27.5940 O   0  0  0  0  0  0  0  0  0  0  0  0
    7.9000   -0.8230   23.4110 S   0  0  0  0  0  0  0  0  0  0  0  0
    8.1560   -6.6570   28.7970 C   0  0  0  0  0  0  0  0  0  0  0  0
    8.8050   -5.7700   27.9560 C   0  0  0  0  0  0  0  0  0  0  0  0
    6.8950   -7.2140   30.9190 C   0  0  0  0  0  0  0  0  0  0  0  0
    7.1990   -8.2830   33.0980 C   0  0  0  0  0  0  0  0  0  0  0  0
    6.2040   -9.4100   32.9510 C   0  0  0  0  0  0  0  0  0  0  0  0
    7.3690  -10.2490   31.0500 C   0  0  0  0  0  0  0  0  0  0  0  0
    8.3840   -9.1390   31.1880 C   0  0  0  0  0  0  0  0  0  0  0  0
    7.8490  -11.1490   33.2290 C   0  0  0  0  0  0  0  0  0  0  0  0
    7.8130   -7.9380   31.8130 N   0  0  0  0  0  0  0  0  0  0  0  0
    6.8150  -10.5960   32.3530 N   0  0  0  0  0  0  0  0  0  0  0  0
  2  1  2  0
  3  2  1  0
  5  1  1  0
  5  4  2  0
  6  5  1  0
  7  6  2  0
 10  9  2  0
 11 10  1  0
 12 11  2  0
 13 12  1  0
 14  9  1  0
 14 13  2  0
 15 14  1  0
 17 16  1  0
 18 17  2  0
 19 18  1  0
 20 19  2  0
 21  3  2  0
 21  4  1  0
 22  6  1  0
 22  8  2  0
 23  9  1  0
 23  8  1  0
 24 11  1  0
 24 16  1  0
 25 16  2  0
 26  8  1  0
 26  7  1  0
 27 20  1  0
 28 27  2  0
 28 17  1  0
 29 20  1  0
 31 30  1  0
 33 32  1  0
 35 33  1  0
 35 29  1  0
 35 30  1  0
 36 34  1  0
 36 32  1  0
 36 31  1  0
M  END
