
     RDKit          3D

 11 12  0  0  0  0  0  0  0  0999 V2000
   28.8250   55.5670   -6.8100 C   0  0  0  0  0  0  0  0  0  0  0  0
   28.6840   54.1870   -7.1940 N   0  0  0  0  0  0  0  0  0  0  0  0
   28.2140   53.8370   -8.3700 C   0  0  0  0  0  0  0  0  0  0  0  0
   28.1620   52.4340   -8.3910 C   0  0  0  0  0  0  0  0  0  0  0  0
   28.6300   51.9710   -7.1360 C   0  0  0  0  0  0  0  0  0  0  0  0
   28.8600   50.6960   -6.5290 C   0  0  0  0  0  0  0  0  0  0  0  0
   28.6310   49.4790   -7.2610 N   0  0  0  0  0  0  0  0  0  0  0  0
   29.3270   50.6690   -5.3130 N   0  0  0  0  0  0  0  0  0  0  0  0
   29.5700   51.8250   -4.6750 C   0  0  0  0  0  0  0  0  0  0  0  0
   29.3840   53.0290   -5.1870 N   0  0  0  0  0  0  0  0  0  0  0  0
   28.9690   53.1170   -6.4620 C   0  0  0  0  0  0  0  0  0  0  0  0
  2  1  1  0
  3  2  1  0
  4  3  2  0
  5  4  1  0
  6  5  1  0
  7  6  1  0
  8  6  2  0
  9  8  1  0
 10  9  2  0
 11  5  2  0
 11  2  1  0
 11 10  1  0
M  END
