
     RDKit          3D

 26 28  0  0  0  0  0  0  0  0999 V2000
    4.3830   -0.4250   22.5380 F   0  0  0  0  0  0  0  0  0  0  0  0
    4.0000    0.4930   21.6260 C   0  0  0  0  0  0  0  0  0  0  0  0
    2.9980    1.3680   21.9700 C   0  0  0  0  0  0  0  0  0  0  0  0
    2.6000    2.3130   21.0430 C   0  0  0  0  0  0  0  0  0  0  0  0
    3.2180    2.3900   19.8070 C   0  0  0  0  0  0  0  0  0  0  0  0
    4.6360    0.4980   20.3900 C   0  0  0  0  0  0  0  0  0  0  0  0
    4.2400    1.5010   19.4800 C   0  0  0  0  0  0  0  0  0  0  0  0
    4.8910    1.6060   18.2550 N   0  0  0  0  0  0  0  0  0  0  0  0
    5.9130    0.7920   17.8490 C   0  0  0  0  0  0  0  0  0  0  0  0
    6.5200    1.0330   16.8020 O   0  0  0  0  0  0  0  0  0  0  0  0
    6.2640   -0.2570   18.7430 C   0  0  0  0  0  0  0  0  0  0  0  0
    5.6810   -0.4450   19.9580 C   0  0  0  0  0  0  0  0  0  0  0  0
    6.0640   -1.6570   20.7470 C   0  0  0  0  0  0  0  0  0  0  0  0
    5.3310   -2.6450   20.7990 O   0  0  0  0  0  0  0  0  0  0  0  0
    7.2090   -1.5860   21.4280 N   0  0  0  0  0  0  0  0  0  0  0  0
    7.5850   -2.5900   22.4150 C   0  0  0  0  0  0  0  0  0  0  0  0
    9.0540   -2.5510   22.7310 C   0  0  0  0  0  0  0  0  0  0  0  0
    9.4730   -1.1790   22.6560 O   0  0  0  0  0  0  0  0  0  0  0  0
   10.8130   -0.8880   22.7240 C   0  0  0  0  0  0  0  0  0  0  0  0
   11.1240    0.4210   23.1420 C   0  0  0  0  0  0  0  0  0  0  0  0
   10.0440    1.2110   23.4300 O   0  0  0  0  0  0  0  0  0  0  0  0
   10.2720    2.6020   23.6610 C   0  0  0  0  0  0  0  0  0  0  0  0
   11.8300   -1.7540   22.3490 C   0  0  0  0  0  0  0  0  0  0  0  0
   13.1430   -1.3150   22.3660 C   0  0  0  0  0  0  0  0  0  0  0  0
   13.4510   -0.0310   22.7800 C   0  0  0  0  0  0  0  0  0  0  0  0
   12.4490    0.8370   23.1820 C   0  0  0  0  0  0  0  0  0  0  0  0
  2  1  1  0
  3  2  2  0
  4  3  1  0
  5  4  2  0
  6  2  1  0
  7  6  2  0
  7  5  1  0
  8  7  1  0
  9  8  1  0
 10  9  2  0
 11  9  1  0
 12  6  1  0
 12 11  2  0
 13 12  1  0
 14 13  2  0
 15 13  1  0
 16 15  1  0
 17 16  1  0
 18 17  1  0
 19 18  1  0
 20 19  2  0
 21 20  1  0
 22 21  1  0
 23 19  1  0
 24 23  2  0
 25 24  1  0
 26 25  2  0
 26 20  1  0
M  END
