
     RDKit          3D

 34 37  0  0  0  0  0  0  0  0999 V2000
    5.1720   -2.2540   21.1240 O   0  0  0  0  0  0  0  0  0  0  0  0
    6.2120   -2.4870   21.6340 C   0  0  0  0  0  0  0  0  0  0  0  0
    7.1230   -1.3560   21.8480 N   0  0  0  0  0  0  0  0  0  0  0  0
    6.6920   -0.0290   21.5200 C   0  0  1  0  0  0  0  0  0  0  0  0
    7.9240    0.9180   21.6180 C   0  0  0  0  0  0  0  0  0  0  0  0
    7.8970    1.9430   22.6740 N   0  0  0  0  0  0  0  0  0  0  0  0
    8.9560    2.9000   22.8780 C   0  0  1  0  0  0  0  0  0  0  0  0
    8.2860    4.2220   23.2430 C   0  0  0  0  0  0  0  0  0  0  0  0
    9.3090    5.3010   23.5950 C   0  0  0  0  0  0  0  0  0  0  0  0
   10.1300    4.8530   24.7680 C   0  0  0  0  0  0  0  0  0  0  0  0
   10.7700    3.4940   24.5750 C   0  0  0  0  0  0  0  0  0  0  0  0
    9.8250    2.4020   24.0460 C   0  0  0  0  0  0  0  0  0  0  0  0
    8.8390    0.8430   20.8380 O   0  0  0  0  0  0  0  0  0  0  0  0
    6.2070    0.2350   20.1250 C   0  0  0  0  0  0  0  0  0  0  0  0
    5.1400    1.0450   19.9660 C   0  0  0  0  0  0  0  0  0  0  0  0
    4.7090    1.3310   18.6950 C   0  0  0  0  0  0  0  0  0  0  0  0
    5.3730    0.7910   17.6100 C   0  0  0  0  0  0  0  0  0  0  0  0
    6.4380   -0.0070   17.7900 N   0  0  0  0  0  0  0  0  0  0  0  0
    6.8500   -0.3020   19.0430 C   0  0  0  0  0  0  0  0  0  0  0  0
    8.4250   -1.4780   22.5460 C   0  0  0  0  0  0  0  0  0  0  0  0
    8.4480   -1.2820   23.9300 C   0  0  0  0  0  0  0  0  0  0  0  0
    9.6620   -1.3920   24.6210 C   0  0  0  0  0  0  0  0  0  0  0  0
   10.8370   -1.7110   23.9280 C   0  0  0  0  0  0  0  0  0  0  0  0
   12.1980   -1.8280   24.7080 C   0  0  2  0  0  0  0  0  0  0  0  0
   12.4090   -0.5160   25.4710 C   0  0  0  0  0  0  0  0  0  0  0  0
   13.4180   -2.0490   23.7890 C   0  0  0  0  0  0  0  0  0  0  0  0
   12.1330   -2.9950   25.6910 C   0  0  0  0  0  0  0  0  0  0  0  0
   10.7960   -1.9090   22.5490 C   0  0  0  0  0  0  0  0  0  0  0  0
    9.5780   -1.7980   21.8550 C   0  0  0  0  0  0  0  0  0  0  0  0
    6.5830   -3.9270   22.0570 C   0  0  0  0  0  0  0  0  0  0  0  0
    7.7100   -4.3670   22.7260 C   0  0  0  0  0  0  0  0  0  0  0  0
    7.5960   -5.6780   22.9040 N   0  0  0  0  0  0  0  0  0  0  0  0
    6.4390   -6.0560   22.3660 C   0  0  0  0  0  0  0  0  0  0  0  0
    5.8160   -4.9770   21.8530 N   0  0  0  0  0  0  0  0  0  0  0  0
  2  1  2  0
  3  2  1  0
  4  3  1  0
  4  5  1  6
  6  5  1  0
  7  6  1  1
  8  7  1  0
  9  8  1  0
 10  9  1  0
 11 10  1  0
 12 11  1  0
 12  7  1  0
 13  5  2  0
 14  4  1  0
 15 14  2  0
 16 15  1  0
 17 16  2  0
 18 17  1  0
 19 18  2  0
 19 14  1  0
 20  3  1  0
 21 20  2  0
 22 21  1  0
 23 22  2  0
 24 23  1  0
 24 25  1  1
 26 24  1  0
 27 24  1  0
 28 23  1  0
 29 28  2  0
 29 20  1  0
 30  2  1  0
 31 30  2  0
 32 31  1  0
 33 32  1  0
 34 33  2  0
 34 30  1  0
M  END
$$$$
