
     RDKit          3D

 26 28  0  0  0  0  0  0  0  0999 V2000
    8.9790    1.6450   20.9330 O   0  0  0  0  0  0  0  0  0  0  0  0
    8.7400    0.9880   21.9310 C   0  0  0  0  0  0  0  0  0  0  0  0
    8.8380    1.5360   23.1590 N   0  0  0  0  0  0  0  0  0  0  0  0
    9.1440    2.9340   23.3640 C   0  0  0  0  0  0  0  0  0  0  0  0
   10.5800    3.2770   23.1270 C   0  0  0  0  0  0  0  0  0  0  0  0
   11.2030    4.4890   23.1350 C   0  0  0  0  0  0  0  0  0  0  0  0
   11.5050    2.3330   22.8170 N   0  0  0  0  0  0  0  0  0  0  0  0
   12.6660    2.9130   22.6360 N   0  0  0  0  0  0  0  0  0  0  0  0
   12.4780    4.2310   22.8150 N   0  0  0  0  0  0  0  0  0  0  0  0
   13.5480    5.1880   22.5750 C   0  0  0  0  0  0  0  0  0  0  0  0
    8.4080   -0.3360   21.8460 N   0  0  0  0  0  0  0  0  0  0  0  0
    8.2490   -0.9660   20.5330 C   0  0  0  0  0  0  0  0  0  0  0  0
    7.2170   -0.3190   19.6370 C   0  0  0  0  0  0  0  0  0  0  0  0
    7.4170   -0.2110   18.2710 C   0  0  0  0  0  0  0  0  0  0  0  0
    6.5970    0.4430   17.4410 N   0  0  0  0  0  0  0  0  0  0  0  0
    5.5090    1.0150   17.9740 C   0  0  0  0  0  0  0  0  0  0  0  0
    5.2010    0.9440   19.3170 C   0  0  0  0  0  0  0  0  0  0  0  0
    6.0660    0.2600   20.1520 C   0  0  0  0  0  0  0  0  0  0  0  0
    8.2880   -1.2350   23.0030 C   0  0  0  0  0  0  0  0  0  0  0  0
    9.4560   -2.2110   23.1450 C   0  0  0  0  0  0  0  0  0  0  0  0
   10.7760   -1.4910   23.2870 C   0  0  0  0  0  0  0  0  0  0  0  0
   10.9890   -0.6040   24.3360 C   0  0  0  0  0  0  0  0  0  0  0  0
   12.1260    0.1890   24.3740 C   0  0  0  0  0  0  0  0  0  0  0  0
   13.0760    0.0900   23.3750 C   0  0  0  0  0  0  0  0  0  0  0  0
   12.9030   -0.8260   22.3540 C   0  0  0  0  0  0  0  0  0  0  0  0
   11.7600   -1.6130   22.3110 C   0  0  0  0  0  0  0  0  0  0  0  0
  2  1  2  0
  3  2  1  0
  4  3  1  0
  5  4  1  0
  6  5  2  0
  7  5  1  0
  8  7  2  0
  9  8  1  0
  9  6  1  0
 10  9  1  0
 11  2  1  0
 12 11  1  0
 13 12  1  0
 14 13  2  0
 15 14  1  0
 16 15  2  0
 17 16  1  0
 18 17  2  0
 18 13  1  0
 19 11  1  0
 20 19  1  0
 21 20  1  0
 22 21  2  0
 23 22  1  0
 24 23  2  0
 25 24  1  0
 26 21  1  0
 26 25  2  0
M  END
