
     RDKit          3D

 11 10  0  0  0  0  0  0  0  0999 V2000
    0.3130    5.2600   -8.2440 N   0  0  0  0  0  0  0  0  0  0  0  0
   -0.1050    5.1800   -6.8640 C   0  0  2  0  0  0  0  0  0  0  0  0
    1.0640    4.8590   -5.8900 C   0  0  0  0  0  0  0  0  0  0  0  0
    0.6300    4.6890   -4.5660 O   0  0  0  0  0  0  0  0  0  0  0  0
   -1.1900    4.1180   -6.6630 C   0  0  0  0  0  0  0  0  0  0  0  0
   -1.9210    3.8450   -7.9590 C   0  0  0  0  0  0  0  0  0  0  0  0
   -3.3310    4.4290   -7.8700 C   0  0  0  0  0  0  0  0  0  0  0  0
   -3.3120    5.8700   -7.7050 N   0  0  0  0  0  0  0  0  0  0  0  0
   -4.4550    6.6280   -7.5980 C   0  0  0  0  0  0  0  0  0  0  0  0
   -5.6970    6.0330   -7.6450 N   0  0  0  0  0  0  0  0  0  0  0  0
   -4.3550    7.9970   -7.4430 N   0  0  0  0  0  0  0  0  0  0  0  0
  2  1  1  6
  3  2  1  0
  4  3  1  0
  5  2  1  0
  6  5  1  0
  7  6  1  0
  8  7  1  0
  9  8  1  0
 10  9  1  0
 11  9  1  0
M  END
