
     RDKit          3D

 14 15  0  0  0  0  0  0  0  0999 V2000
   31.3730   46.0300   -8.2510 O   0  0  0  0  0  0  0  0  0  0  0  0
   32.5410   46.2160   -7.8140 C   0  0  0  0  0  0  0  0  0  0  0  0
   33.2610   47.0210   -8.4190 O   0  0  0  0  0  0  0  0  0  0  0  0
   33.0610   45.4750   -6.5980 C   0  0  0  0  0  0  0  0  0  0  0  0
   32.4900   44.3820   -5.9630 C   0  0  0  0  0  0  0  0  0  0  0  0
   33.2820   44.0110   -4.9970 N   0  0  0  0  0  0  0  0  0  0  0  0
   34.2710   44.8220   -4.9580 N   0  0  0  0  0  0  0  0  0  0  0  0
   34.2450   45.6910   -5.8960 C   0  0  0  0  0  0  0  0  0  0  0  0
   35.2960   44.7510   -4.0060 C   0  0  0  0  0  0  0  0  0  0  0  0
   36.0960   45.8460   -3.8420 C   0  0  0  0  0  0  0  0  0  0  0  0
   37.0920   45.8030   -2.9060 C   0  0  0  0  0  0  0  0  0  0  0  0
   37.2470   44.6540   -2.1600 C   0  0  0  0  0  0  0  0  0  0  0  0
   36.4120   43.5790   -2.3340 C   0  0  0  0  0  0  0  0  0  0  0  0
   35.4350   43.6190   -3.2640 C   0  0  0  0  0  0  0  0  0  0  0  0
  2  1  1  0
  3  2  1  0
  4  2  1  0
  5  4  1  0
  6  5  1  0
  7  6  1  0
  8  4  1  0
  8  7  1  0
  9  7  1  0
 10  9  1  0
 11 10  1  0
 12 11  1  0
 13 12  1  0
 14 13  1  0
 14  9  1  0
M  CHG  1   1  -1
M  END
$$$$
