
     RDKit          3D

 13 13  0  0  0  0  0  0  0  0999 V2000
   21.6740   49.1840   15.1620 O   0  0  0  0  0  0  0  0  0  0  0  0
   22.0990   49.8500   14.2170 C   0  0  0  0  0  0  0  0  0  0  0  0
   23.3860   50.0310   13.9720 N   0  0  0  0  0  0  0  0  0  0  0  0
   21.1090   50.4930   13.2570 C   0  0  1  0  0  0  0  0  0  0  0  0
   20.8230   51.9180   13.6720 C   0  0  0  0  0  0  0  0  0  0  0  0
   21.7350   50.5600   11.9770 O   0  0  0  0  0  0  0  0  0  0  0  0
   21.5660   49.5040   11.1070 C   0  0  0  0  0  0  0  0  0  0  0  0
   20.8320   49.7230    9.9510 C   0  0  0  0  0  0  0  0  0  0  0  0
   20.5240   48.6610    9.1230 C   0  0  0  0  0  0  0  0  0  0  0  0
   20.9470   47.3940    9.4650 C   0  0  0  0  0  0  0  0  0  0  0  0
   20.3390   46.0290    8.5770 Cl  0  0  0  0  0  0  0  0  0  0  0  0
   21.7390   47.1770   10.5710 C   0  0  0  0  0  0  0  0  0  0  0  0
   22.0480   48.2390   11.4010 C   0  0  0  0  0  0  0  0  0  0  0  0
  2  1  2  0
  3  2  1  0
  4  2  1  0
  4  5  1  1
  6  4  1  0
  7  6  1  0
  8  7  2  0
  9  8  1  0
 10  9  2  0
 11 10  1  0
 12 10  1  0
 13 12  2  0
 13  7  1  0
M  END
