
     RDKit          3D

 23 25  0  0  0  0  0  0  0  0999 V2000
    9.1680   -0.6090   21.9800 N   0  0  0  0  0  0  0  0  0  0  0  0
   13.7300   -2.0740   23.1570 C   0  0  0  0  0  0  0  0  0  0  0  0
    8.5290    1.2590   20.8490 O   0  0  0  0  0  0  0  0  0  0  0  0
   12.7120   -0.9730   22.9800 C   0  0  0  0  0  0  0  0  0  0  0  0
    4.6490    1.5510   18.9260 N   0  0  0  0  0  0  0  0  0  0  0  0
   12.5960    2.5890   23.4390 O   0  0  0  0  0  0  0  0  0  0  0  0
   11.4210   -1.2620   22.5550 C   0  0  0  0  0  0  0  0  0  0  0  0
    6.2690    0.6800   17.4000 N   0  0  0  0  0  0  0  0  0  0  0  0
   13.5580    6.2900   21.6290 O   0  0  0  0  0  0  0  0  0  0  0  0
   10.4700   -0.2580   22.4070 C   0  0  0  0  0  0  0  0  0  0  0  0
   12.3600    4.2640   21.6940 N   0  0  0  0  0  0  0  0  0  0  0  0
    8.3160    0.1080   21.2150 C   0  0  0  0  0  0  0  0  0  0  0  0
    7.0470   -0.6350   20.8410 C   0  0  0  0  0  0  0  0  0  0  0  0
    6.2780   -0.0360   19.6850 C   0  0  0  0  0  0  0  0  0  0  0  0
    5.2020    0.8100   19.8920 C   0  0  0  0  0  0  0  0  0  0  0  0
    5.2140    1.4350   17.7200 C   0  0  0  0  0  0  0  0  0  0  0  0
    6.7800   -0.0530   18.3960 C   0  0  0  0  0  0  0  0  0  0  0  0
   10.8110    1.0600   22.6830 C   0  0  0  0  0  0  0  0  0  0  0  0
   12.0980    1.3500   23.0990 C   0  0  0  0  0  0  0  0  0  0  0  0
   11.9270    3.7840   23.0080 C   0  0  2  0  0  0  0  0  0  0  0  0
   12.7650    4.9140   23.6250 C   0  0  0  0  0  0  0  0  0  0  0  0
   13.0040    5.3400   22.1840 C   0  0  0  0  0  0  0  0  0  0  0  0
   13.0450    0.3490   23.2470 C   0  0  0  0  0  0  0  0  0  0  0  0
  4  2  1  0
  7  4  2  0
 10  1  1  0
 10  7  1  0
 12  3  2  0
 12  1  1  0
 13 12  1  0
 14 13  1  0
 15  5  2  0
 15 14  1  0
 16  5  1  0
 16  8  2  0
 17 14  2  0
 17  8  1  0
 18 10  2  0
 19 18  1  0
 19  6  1  0
 20 11  1  0
 20  6  1  1
 21 20  1  0
 22 11  1  0
 22 21  1  0
 22  9  2  0
 23 19  2  0
 23  4  1  0
M  END
