
     RDKit          3D

 12 13  0  0  0  0  0  0  0  0999 V2000
   28.0730   54.9170   -8.2270 N   0  0  0  0  0  0  0  0  0  0  0  0
   28.4000   53.7570   -7.4710 C   0  0  0  0  0  0  0  0  0  0  0  0
   28.2340   52.4920   -8.1090 N   0  0  0  0  0  0  0  0  0  0  0  0
   28.5880   51.2330   -7.3570 C   0  0  0  0  0  0  0  0  0  0  0  0
   28.4480   50.0010   -7.9650 C   0  0  0  0  0  0  0  0  0  0  0  0
   28.7800   48.8560   -7.2870 C   0  0  0  0  0  0  0  0  0  0  0  0
   29.2610   48.9020   -5.9950 C   0  0  0  0  0  0  0  0  0  0  0  0
   29.4100   50.1390   -5.3990 C   0  0  0  0  0  0  0  0  0  0  0  0
   29.0500   51.2800   -6.0680 C   0  0  0  0  0  0  0  0  0  0  0  0
   29.2280   52.6210   -5.4320 C   0  0  0  0  0  0  0  0  0  0  0  0
   29.6680   52.6310   -4.3340 O   0  0  0  0  0  0  0  0  0  0  0  0
   28.8940   53.8230   -6.1380 N   0  0  0  0  0  0  0  0  0  0  0  0
  2  1  1  0
  3  2  2  0
  4  3  1  0
  5  4  2  0
  6  5  1  0
  7  6  2  0
  8  7  1  0
  9  4  1  0
  9  8  2  0
 10  9  1  0
 11 10  2  0
 12  2  1  0
 12 10  1  0
M  END
