
     RDKit          3D

 35 37  0  0  0  0  0  0  0  0999 V2000
    9.3580    1.2760   20.9820 O   0  0  0  0  0  0  0  0  0  0  0  0
    8.3300    1.1980   21.6440 C   0  0  0  0  0  0  0  0  0  0  0  0
    8.0360    2.0380   22.6670 N   0  0  0  0  0  0  0  0  0  0  0  0
    8.7650    3.2020   23.0310 C   0  0  0  0  0  0  0  0  0  0  0  0
    8.3030    4.4610   22.6440 C   0  0  0  0  0  0  0  0  0  0  0  0
    8.9950    5.5970   23.0310 C   0  0  0  0  0  0  0  0  0  0  0  0
   10.1260    5.4820   23.8260 C   0  0  0  0  0  0  0  0  0  0  0  0
   10.7340    6.6480   24.2250 O   0  0  0  0  0  0  0  0  0  0  0  0
   11.8840    6.5700   25.0760 C   0  0  0  0  0  0  0  0  0  0  0  0
   10.5940    4.2330   24.2050 C   0  0  0  0  0  0  0  0  0  0  0  0
    9.9350    3.0760   23.8090 C   0  0  0  0  0  0  0  0  0  0  0  0
   10.4990    1.7370   24.2050 C   0  0  0  0  0  0  0  0  0  0  0  0
    7.2590    0.1510   21.2930 C   0  0  1  0  0  0  0  0  0  0  0  0
    6.5980    0.4440   19.9530 C   0  0  0  0  0  0  0  0  0  0  0  0
    5.3830    1.1110   19.8860 C   0  0  0  0  0  0  0  0  0  0  0  0
    4.8290    1.4260   18.6590 C   0  0  0  0  0  0  0  0  0  0  0  0
    5.5100    1.0470   17.5170 C   0  0  0  0  0  0  0  0  0  0  0  0
    6.6810    0.4010   17.5410 N   0  0  0  0  0  0  0  0  0  0  0  0
    7.1980    0.1150   18.7430 C   0  0  0  0  0  0  0  0  0  0  0  0
    7.5440   -1.2870   21.5710 N   0  0  0  0  0  0  0  0  0  0  0  0
    6.7220   -2.3110   21.1880 C   0  0  0  0  0  0  0  0  0  0  0  0
    5.6720   -2.1080   20.6070 O   0  0  0  0  0  0  0  0  0  0  0  0
    7.1420   -3.7270   21.4900 C   0  0  0  0  0  0  0  0  0  0  0  0
    7.1530   -4.5670   20.2390 C   0  0  0  0  0  0  0  0  0  0  0  0
    8.7350   -1.5260   22.3420 C   0  0  0  0  0  0  0  0  0  0  0  0
    8.6930   -1.4900   23.7340 C   0  0  0  0  0  0  0  0  0  0  0  0
    9.8630   -1.5940   24.4650 C   0  0  0  0  0  0  0  0  0  0  0  0
   11.0970   -1.7110   23.8380 C   0  0  0  0  0  0  0  0  0  0  0  0
   11.1240   -1.8090   22.4530 C   0  0  0  0  0  0  0  0  0  0  0  0
    9.9600   -1.7200   21.7070 C   0  0  0  0  0  0  0  0  0  0  0  0
   12.3770   -1.5360   24.6220 C   0  0  2  0  0  0  0  0  0  0  0  0
   13.3320   -0.5660   23.9620 C   0  0  0  0  0  0  0  0  0  0  0  0
   13.1260   -2.7400   24.6670 O   0  0  0  0  0  0  0  0  0  0  0  0
   12.9700   -3.4330   25.8960 C   0  0  0  0  0  0  0  0  0  0  0  0
    8.2470   -3.8620   18.9780 S   0  0  0  0  0  0  0  0  0  0  0  0
  2  1  2  0
  3  2  1  0
  4  3  1  0
  5  4  2  0
  6  5  1  0
  7  6  2  0
  8  7  1  0
  9  8  1  0
 10  7  1  0
 11 10  2  0
 11  4  1  0
 12 11  1  0
 13  2  1  6
 14 13  1  0
 15 14  2  0
 16 15  1  0
 17 16  2  0
 18 17  1  0
 19 18  2  0
 19 14  1  0
 20 13  1  0
 21 20  1  0
 22 21  2  0
 23 21  1  0
 24 23  1  0
 25 20  1  0
 26 25  2  0
 27 26  1  0
 28 27  2  0
 29 28  1  0
 30 25  1  0
 30 29  2  0
 31 28  1  0
 31 32  1  6
 33 31  1  0
 34 33  1  0
 24 35  1  0
M  END
