
     RDKit          3D

 11 12  0  0  0  0  0  0  0  0999 V2000
   28.2570   51.7210   -9.1280 N   0  0  0  0  0  0  0  0  0  0  0  0
   28.6230   50.3170   -9.1460 C   0  0  0  0  0  0  0  0  0  0  0  0
   28.4870   49.6060  -10.2460 N   0  0  0  0  0  0  0  0  0  0  0  0
   28.7830   48.3250  -10.3300 C   0  0  0  0  0  0  0  0  0  0  0  0
   29.2970   47.6850   -9.2040 C   0  0  0  0  0  0  0  0  0  0  0  0
   29.4750   48.4150   -7.9840 C   0  0  0  0  0  0  0  0  0  0  0  0
   29.9920   47.8100   -6.8030 C   0  0  0  0  0  0  0  0  0  0  0  0
   30.1470   48.5710   -5.6490 C   0  0  0  0  0  0  0  0  0  0  0  0
   29.7950   49.9220   -5.6420 C   0  0  0  0  0  0  0  0  0  0  0  0
   29.2910   50.5160   -6.7850 C   0  0  0  0  0  0  0  0  0  0  0  0
   29.1360   49.7380   -7.9610 C   0  0  0  0  0  0  0  0  0  0  0  0
  2  1  1  0
  3  2  1  0
  4  3  1  0
  5  4  1  0
  6  5  1  0
  7  6  1  0
  8  7  1  0
  9  8  1  0
 10  9  1  0
 11  6  1  0
 11 10  1  0
 11  2  1  0
M  END
$$$$
