
     RDKit          3D

 23 25  0  0  0  0  0  0  0  0999 V2000
    7.7410   -2.6170   21.9150 N   0  0  0  0  0  0  0  0  0  0  0  0
    7.8690   -0.3030   27.5850 C   0  0  0  0  0  0  0  0  0  0  0  0
    8.8190   -0.8660   25.4940 O   0  0  0  0  0  0  0  0  0  0  0  0
    8.6210    0.2180   26.4210 C   0  0  0  0  0  0  0  0  0  0  0  0
    8.2810   -4.8470   21.6910 O   0  0  0  0  0  0  0  0  0  0  0  0
    9.6910   -0.6900   24.4430 C   0  0  0  0  0  0  0  0  0  0  0  0
    6.0940   -4.4870   19.7560 O   0  0  0  0  0  0  0  0  0  0  0  0
    9.4500   -1.4910   23.3220 C   0  0  0  0  0  0  0  0  0  0  0  0
    8.2530   -2.4100   23.2710 C   0  0  0  0  0  0  0  0  0  0  0  0
    7.8050   -3.8170   21.2530 C   0  0  0  0  0  0  0  0  0  0  0  0
    7.1970   -3.6120   19.8740 C   0  0  0  0  0  0  0  0  0  0  0  0
    6.7960   -2.1660   19.8870 C   0  0  0  0  0  0  0  0  0  0  0  0
    7.1870   -1.6160   21.1010 C   0  0  0  0  0  0  0  0  0  0  0  0
    7.0340   -0.2570   21.3550 C   0  0  0  0  0  0  0  0  0  0  0  0
    6.4820    0.5510   20.3750 C   0  0  0  0  0  0  0  0  0  0  0  0
    6.0910   -0.0100   19.1710 C   0  0  0  0  0  0  0  0  0  0  0  0
    6.2250   -1.3600   18.9140 C   0  0  0  0  0  0  0  0  0  0  0  0
   10.3100   -1.3690   22.2310 C   0  0  0  0  0  0  0  0  0  0  0  0
   11.3540   -0.4590   22.2450 C   0  0  0  0  0  0  0  0  0  0  0  0
   11.5700    0.3260   23.3530 C   0  0  0  0  0  0  0  0  0  0  0  0
   10.7510    0.2080   24.4650 C   0  0  0  0  0  0  0  0  0  0  0  0
    5.3950    1.1130   17.8110 Br  0  0  0  0  0  0  0  0  0  0  0  0
    8.6130   -3.3970   18.6860 S   0  0  0  0  0  0  0  0  0  0  0  0
  4  3  1  0
  4  2  1  0
  6  3  1  0
  8  6  2  0
  9  8  1  0
  9  1  1  0
 10  5  2  0
 10  1  1  0
 11 10  1  0
 11  7  1  6
 12 11  1  0
 13 12  2  0
 13  1  1  0
 14 13  1  0
 15 14  2  0
 16 15  1  0
 17 16  2  0
 17 12  1  0
 18  8  1  0
 19 18  2  0
 20 19  1  0
 21  6  1  0
 21 20  2  0
 22 16  1  0
 11 23  1  0
M  END
