
     RDKit          3D

 11 11  0  0  0  0  0  0  0  0999 V2000
    9.5270    5.1070   23.0000 N   0  0  0  0  0  0  0  0  0  0  0  0
   12.6100    1.0520   23.1500 C   0  0  0  0  0  0  0  0  0  0  0  0
   10.3670    5.1640   25.3050 O   0  0  0  0  0  0  0  0  0  0  0  0
   11.3700    1.1210   23.7910 C   0  0  0  0  0  0  0  0  0  0  0  0
   10.8290    2.3950   24.0540 C   0  0  0  0  0  0  0  0  0  0  0  0
   11.5030    3.5810   23.6880 C   0  0  0  0  0  0  0  0  0  0  0  0
   12.7490    3.4480   23.0580 C   0  0  0  0  0  0  0  0  0  0  0  0
   13.3080    2.2000   22.7900 C   0  0  0  0  0  0  0  0  0  0  0  0
   11.7330    6.1150   23.5100 O   0  0  0  0  0  0  0  0  0  0  0  0
   10.8430    5.1060   23.9780 S   0  0  1  0  0  0  0  0  0  0  0  0
   13.4090   -0.7000   22.6920 Br  0  0  0  0  0  0  0  0  0  0  0  0
  4  2  2  0
  5  4  1  0
  6  5  2  0
  7  6  1  0
  8  7  2  0
  8  2  1  0
 10  3  2  0
 10  1  1  6
 10  6  1  0
 10  9  2  0
 11  2  1  0
M  END
