
     RDKit          3D

 26 28  0  0  0  0  0  0  0  0999 V2000
    6.2910    0.7650   25.3900 F   0  0  0  0  0  0  0  0  0  0  0  0
    5.7240   -0.2900   25.9720 C   0  0  1  0  0  0  0  0  0  0  0  0
    4.4880    0.0730   26.3020 F   0  0  0  0  0  0  0  0  0  0  0  0
    5.6030   -1.2230   25.0290 F   0  0  0  0  0  0  0  0  0  0  0  0
    6.4990   -0.7730   27.1600 C   0  0  2  0  0  0  0  0  0  0  0  0
    6.9830    0.2750   28.1170 C   0  0  0  0  0  0  0  0  0  0  0  0
    7.9490   -0.6990   27.5200 C   0  0  2  0  0  0  0  0  0  0  0  0
    9.1650   -0.1920   26.9020 N   0  0  0  0  0  0  0  0  0  0  0  0
    9.7040   -0.2730   25.6210 C   0  0  0  0  0  0  0  0  0  0  0  0
   10.9970    0.2080   25.4230 C   0  0  0  0  0  0  0  0  0  0  0  0
   11.5890    0.0330   24.1870 C   0  0  0  0  0  0  0  0  0  0  0  0
   13.3100    0.2910   24.0350 Cl  0  0  0  0  0  0  0  0  0  0  0  0
   10.8970   -0.5070   23.1190 C   0  0  0  0  0  0  0  0  0  0  0  0
    9.0060   -0.8370   24.5560 C   0  0  0  0  0  0  0  0  0  0  0  0
    9.5920   -0.9520   23.3000 C   0  0  0  0  0  0  0  0  0  0  0  0
    8.8450   -1.6160   22.1640 C   0  0  0  0  0  0  0  0  0  0  0  0
    8.1510   -0.6150   21.2620 C   0  0  0  0  0  0  0  0  0  0  0  0
    8.6290    0.4870   21.0360 O   0  0  0  0  0  0  0  0  0  0  0  0
    6.9880   -1.0420   20.7350 N   0  0  0  0  0  0  0  0  0  0  0  0
    6.2670   -0.3330   19.7510 C   0  0  0  0  0  0  0  0  0  0  0  0
    5.0870    0.3510   20.0950 C   0  0  0  0  0  0  0  0  0  0  0  0
    4.5470    0.3560   21.5040 C   0  0  0  0  0  0  0  0  0  0  0  0
    6.7490   -0.2230   18.4490 C   0  0  0  0  0  0  0  0  0  0  0  0
    6.1540    0.5110   17.5030 N   0  0  0  0  0  0  0  0  0  0  0  0
    5.0240    1.1440   17.8370 C   0  0  0  0  0  0  0  0  0  0  0  0
    4.4630    1.0900   19.0950 C   0  0  0  0  0  0  0  0  0  0  0  0
  2  1  1  6
  3  2  1  0
  4  2  1  0
  5  2  1  0
  5  6  1  1
  7  5  1  0
  7  6  1  0
  7  8  1  6
  9  8  1  0
 10  9  2  0
 11 10  1  0
 12 11  1  0
 13 11  2  0
 14  9  1  0
 15 14  2  0
 15 13  1  0
 16 15  1  0
 17 16  1  0
 18 17  2  0
 19 17  1  0
 20 19  1  0
 21 20  2  0
 22 21  1  0
 23 20  1  0
 24 23  2  0
 25 24  1  0
 26 25  2  0
 26 21  1  0
M  END
