
     RDKit          3D

 28 31  0  0  0  0  0  0  0  0999 V2000
    9.2450    1.3150   21.0740 O   0  0  0  0  0  0  0  0  0  0  0  0
    8.9680    0.2940   21.6880 C   0  0  0  0  0  0  0  0  0  0  0  0
    8.2160   -0.8510   21.0080 C   0  0  0  0  0  0  0  0  0  0  0  0
    7.3280   -0.3720   19.9700 N   0  0  0  0  0  0  0  0  0  0  0  0
    6.2050    0.3920   20.0670 C   0  0  0  0  0  0  0  0  0  0  0  0
    5.3980    0.7850   21.1270 C   0  0  0  0  0  0  0  0  0  0  0  0
    4.3080    1.5980   20.8390 C   0  0  0  0  0  0  0  0  0  0  0  0
    4.0360    1.9970   19.5320 C   0  0  0  0  0  0  0  0  0  0  0  0
    4.8510    1.6000   18.4810 C   0  0  0  0  0  0  0  0  0  0  0  0
    5.9470    0.7880   18.7580 C   0  0  0  0  0  0  0  0  0  0  0  0
    6.9230    0.2640   17.9400 N   0  0  0  0  0  0  0  0  0  0  0  0
    7.7460   -0.4270   18.6800 N   0  0  0  0  0  0  0  0  0  0  0  0
    9.2990    0.1150   22.9980 N   0  0  0  0  0  0  0  0  0  0  0  0
    9.7070    1.2780   23.7790 C   0  0  0  0  0  0  0  0  0  0  0  0
   11.0200    1.8430   23.3350 C   0  0  0  0  0  0  0  0  0  0  0  0
   11.0390    3.1420   22.8480 N   0  0  0  0  0  0  0  0  0  0  0  0
   12.2520    3.4620   22.5220 C   0  0  0  0  0  0  0  0  0  0  0  0
   13.4320    2.2530   22.7810 S   0  0  0  0  0  0  0  0  0  0  0  0
   12.2160    1.2230   23.3640 C   0  0  0  0  0  0  0  0  0  0  0  0
    9.1590   -1.1240   23.6840 C   0  0  0  0  0  0  0  0  0  0  0  0
    9.9620   -2.2090   23.3570 C   0  0  0  0  0  0  0  0  0  0  0  0
    9.8600   -3.3880   24.0700 C   0  0  0  0  0  0  0  0  0  0  0  0
    8.2420   -1.2400   24.7160 C   0  0  0  0  0  0  0  0  0  0  0  0
    8.1530   -2.4100   25.4470 C   0  0  0  0  0  0  0  0  0  0  0  0
    8.9630   -3.5070   25.1410 C   0  0  0  0  0  0  0  0  0  0  0  0
    8.8910   -4.6660   25.8770 N   0  0  0  0  0  0  0  0  0  0  0  0
    7.6900   -5.0020   26.6270 C   0  0  0  0  0  0  0  0  0  0  0  0
    9.7320   -5.8030   25.5430 C   0  0  0  0  0  0  0  0  0  0  0  0
  2  1  2  0
  3  2  1  0
  4  3  1  0
  5  4  1  0
  6  5  2  0
  7  6  1  0
  8  7  2  0
  9  8  1  0
 10  9  2  0
 10  5  1  0
 11 10  1  0
 12 11  2  0
 12  4  1  0
 13  2  1  0
 14 13  1  0
 15 14  1  0
 16 15  1  0
 17 16  2  0
 18 17  1  0
 19 18  1  0
 19 15  2  0
 20 13  1  0
 21 20  2  0
 22 21  1  0
 23 20  1  0
 24 23  2  0
 25 24  1  0
 25 22  2  0
 26 25  1  0
 27 26  1  0
 28 26  1  0
M  END
