
     RDKit          3D

  8  8  0  0  0  0  0  0  0  0999 V2000
   -0.7170    7.6780  -17.7560 C   0  0  0  0  0  0  0  0  0  0  0  0
   -0.6800    6.9390  -18.8700 C   0  0  0  0  0  0  0  0  0  0  0  0
   -0.3600    7.3580  -20.2640 C   0  0  0  0  0  0  0  0  0  0  0  0
   -0.9940    5.7440  -18.5390 O   0  0  0  0  0  0  0  0  0  0  0  0
   -1.1970    5.7090  -17.1980 N   0  0  0  0  0  0  0  0  0  0  0  0
   -1.0530    6.8970  -16.7040 C   0  0  0  0  0  0  0  0  0  0  0  0
   -1.2210    7.2860  -15.2240 C   0  0  0  0  0  0  0  0  0  0  0  0
   -0.7020    8.2820  -14.7760 O   0  0  0  0  0  0  0  0  0  0  0  0
  2  1  1  0
  3  2  1  0
  4  2  1  0
  5  4  1  0
  6  5  1  0
  6  1  1  0
  7  6  1  0
  8  7  1  0
M  END
$$$$
