
     RDKit          3D

 27 29  0  0  0  0  0  0  0  0999 V2000
    7.0550   -0.5160   20.7990 N   0  0  0  0  0  0  0  0  0  0  0  0
   12.9070    7.1010   25.0400 C   0  0  0  0  0  0  0  0  0  0  0  0
    8.6960    1.0450   20.8190 O   0  0  0  0  0  0  0  0  0  0  0  0
   13.9400   -1.6390   22.7990 Cl  0  0  0  0  0  0  0  0  0  0  0  0
   12.5200    5.7380   24.5230 C   0  0  1  0  0  0  0  0  0  0  0  0
    6.1850    0.5850   17.3800 N   0  0  0  0  0  0  0  0  0  0  0  0
   13.3800    5.0140   23.6900 C   0  0  0  0  0  0  0  0  0  0  0  0
   13.0900    3.7190   23.2800 C   0  0  0  0  0  0  0  0  0  0  0  0
   11.9250    3.0700   23.6970 C   0  0  2  0  0  0  0  0  0  0  0  0
   11.0610    3.8040   24.5070 C   0  0  2  0  0  0  0  0  0  0  0  0
   11.3350    5.0980   24.8900 C   0  0  0  0  0  0  0  0  0  0  0  0
   11.7160    1.6400   23.3200 C   0  0  0  0  0  0  0  0  0  0  0  0
   12.8070    0.7780   23.1760 C   0  0  0  0  0  0  0  0  0  0  0  0
   12.5860   -0.5460   22.8510 C   0  0  2  0  0  0  0  0  0  0  0  0
   11.3200   -1.0450   22.6310 C   0  0  0  0  0  0  0  0  0  0  0  0
   10.2230   -0.2020   22.7570 C   0  0  2  0  0  0  0  0  0  0  0  0
    8.8320   -0.7120   22.4400 C   0  0  0  0  0  0  0  0  0  0  0  0
    8.2000    0.0220   21.2720 C   0  0  0  0  0  0  0  0  0  0  0  0
    6.3180    0.0560   19.7250 C   0  0  2  0  0  0  0  0  0  0  0  0
    6.7600   -0.0530   18.4060 C   0  0  0  0  0  0  0  0  0  0  0  0
    5.1180    1.3500   17.6540 C   0  0  0  0  0  0  0  0  0  0  0  0
    4.5980    1.5080   18.9230 C   0  0  0  0  0  0  0  0  0  0  0  0
    5.1980    0.8630   19.9980 C   0  0  2  0  0  0  0  0  0  0  0  0
    4.7000    1.0860   21.4030 C   0  0  0  0  0  0  0  0  0  0  0  0
   10.4320    1.1270   23.1160 C   0  0  0  0  0  0  0  0  0  0  0  0
    9.9500    3.2210   24.9900 F   0  0  0  0  0  0  0  0  0  0  0  0
   10.4380    5.7660   25.6440 F   0  0  0  0  0  0  0  0  0  0  0  0
  5  2  1  1
  7  5  1  0
  8  7  1  0
  9  8  1  0
 10  9  1  0
 11 10  1  0
 11  5  1  0
  9 12  1  1
 13 12  1  0
 14 13  1  0
 14  4  1  1
 15 14  1  0
 16 15  1  0
 16 17  1  6
 18  3  1  0
 18  1  1  0
 18 17  1  0
 19  1  1  1
 20 19  1  0
 20  6  1  0
 21  6  1  0
 22 21  1  0
 23 22  1  0
 23 19  1  0
 23 24  1  1
 25 16  1  0
 25 12  1  0
 10 26  1  1
 27 11  1  0
M  END
$$$$
