
     RDKit          3D

 23 24  0  0  0  0  0  0  0  0999 V2000
    8.0980   -4.7690   24.6610 N   0  0  0  0  0  0  0  0  0  0  0  0
    7.2860   -3.2360   26.7630 C   0  0  0  0  0  0  0  0  0  0  0  0
    9.5470   -4.4840   26.6220 O   0  0  0  0  0  0  0  0  0  0  0  0
    8.0420   -3.5760   23.7990 C   0  0  0  0  0  0  0  0  0  0  0  0
    8.4460   -0.9190   20.7170 N   0  0  0  0  0  0  0  0  0  0  0  0
    7.4820   -5.8080   26.7960 O   0  0  0  0  0  0  0  0  0  0  0  0
    9.2950   -2.7100   23.8570 C   0  0  0  0  0  0  0  0  0  0  0  0
    6.8090    0.3950   17.6960 N   0  0  0  0  0  0  0  0  0  0  0  0
    7.6810   -0.5930   22.8460 O   0  0  0  0  0  0  0  0  0  0  0  0
    9.6390   -1.9830   22.5470 C   0  0  1  0  0  0  0  0  0  0  0  0
    8.4850   -1.0990   22.0650 C   0  0  0  0  0  0  0  0  0  0  0  0
    7.4820   -0.2480   19.9200 C   0  0  0  0  0  0  0  0  0  0  0  0
    6.3350    0.3440   20.4380 C   0  0  0  0  0  0  0  0  0  0  0  0
    5.4340    0.9520   19.5790 C   0  0  0  0  0  0  0  0  0  0  0  0
    5.7110    0.9530   18.2250 C   0  0  0  0  0  0  0  0  0  0  0  0
    7.6700   -0.1920   18.5380 C   0  0  0  0  0  0  0  0  0  0  0  0
   10.8730   -1.1200   22.7700 C   0  0  0  0  0  0  0  0  0  0  0  0
   12.0180   -1.3030   22.0030 C   0  0  0  0  0  0  0  0  0  0  0  0
   13.1350   -0.5030   22.1930 C   0  0  0  0  0  0  0  0  0  0  0  0
   13.1220    0.4890   23.1540 C   0  0  0  0  0  0  0  0  0  0  0  0
   11.9940    0.6760   23.9300 C   0  0  0  0  0  0  0  0  0  0  0  0
   10.8760   -0.1260   23.7420 C   0  0  0  0  0  0  0  0  0  0  0  0
    8.1720   -4.6670   26.2780 S   0  0  2  0  0  0  0  0  0  0  0  0
  4  1  1  0
  7  4  1  0
 10  7  1  1
 11  5  1  0
 11 10  1  0
 11  9  1  0
 12  5  1  0
 13 12  1  0
 14 13  1  0
 15 14  1  0
 15  8  1  0
 16 12  1  0
 16  8  1  0
 17 10  1  0
 18 17  1  0
 19 18  1  0
 20 19  1  0
 21 20  1  0
 22 17  1  0
 22 21  1  0
 23  6  1  0
 23  3  1  0
 23  2  1  1
 23  1  1  0
M  END
$$$$
