
     RDKit          3D

 21 23  0  0  0  0  0  0  0  0999 V2000
    8.8070    1.0980   21.3630 O   0  0  0  0  0  0  0  0  0  0  0  0
    8.5170   -0.0910   21.3710 C   0  0  0  0  0  0  0  0  0  0  0  0
    9.0590   -1.0350   22.4280 C   0  0  0  0  0  0  0  0  0  0  0  0
   10.5210   -0.7790   22.7200 C   0  0  0  0  0  0  0  0  0  0  0  0
   10.9070    0.1520   23.6770 C   0  0  0  0  0  0  0  0  0  0  0  0
   12.2430    0.4860   23.8450 C   0  0  0  0  0  0  0  0  0  0  0  0
   13.2170   -0.1220   23.0670 C   0  0  0  0  0  0  0  0  0  0  0  0
   11.5030   -1.4060   21.9620 C   0  0  0  0  0  0  0  0  0  0  0  0
   12.8290   -1.0660   22.1420 C   0  0  0  0  0  0  0  0  0  0  0  0
   14.0370   -1.8420   21.1560 Cl  0  0  0  0  0  0  0  0  0  0  0  0
    7.8030   -0.6830   20.3980 N   0  0  0  0  0  0  0  0  0  0  0  0
    6.7570   -0.2100   19.5860 C   0  0  0  0  0  0  0  0  0  0  0  0
    5.6880    0.5980   20.1040 C   0  0  0  0  0  0  0  0  0  0  0  0
    5.2370    0.6640   21.4470 C   0  0  0  0  0  0  0  0  0  0  0  0
    4.1280    1.2770   21.8600 N   0  0  0  0  0  0  0  0  0  0  0  0
    3.3860    1.9060   20.9420 C   0  0  0  0  0  0  0  0  0  0  0  0
    3.7050    1.9650   19.6250 C   0  0  0  0  0  0  0  0  0  0  0  0
    4.8710    1.3000   19.1660 C   0  0  0  0  0  0  0  0  0  0  0  0
    5.1940    1.1870   17.7910 C   0  0  0  0  0  0  0  0  0  0  0  0
    6.1740    0.4350   17.3170 N   0  0  0  0  0  0  0  0  0  0  0  0
    6.9050   -0.2540   18.2000 C   0  0  0  0  0  0  0  0  0  0  0  0
  2  1  2  0
  3  2  1  0
  4  3  1  0
  5  4  2  0
  6  5  1  0
  7  6  2  0
  8  4  1  0
  9  8  2  0
  9  7  1  0
 10  9  1  0
 11  2  1  0
 12 11  1  0
 13 12  1  0
 14 13  2  0
 15 14  1  0
 16 15  2  0
 17 16  1  0
 18 17  2  0
 18 13  1  0
 19 18  1  0
 20 19  2  0
 21 20  1  0
 21 12  2  0
M  END
