
     RDKit          3D

 16 17  0  0  0  0  0  0  0  0999 V2000
    9.2180    0.6810   20.8390 O   0  0  0  0  0  0  0  0  0  0  0  0
    8.6650   -0.2360   21.3480 C   0  0  0  0  0  0  0  0  0  0  0  0
    9.3040   -0.9680   22.4150 N   0  0  0  0  0  0  0  0  0  0  0  0
   10.5910   -0.4930   22.8180 C   0  0  0  0  0  0  0  0  0  0  0  0
   10.6310    0.3370   23.9200 C   0  0  0  0  0  0  0  0  0  0  0  0
   11.8370    0.8460   24.3330 C   0  0  0  0  0  0  0  0  0  0  0  0
   12.9950    0.5300   23.6360 C   0  0  0  0  0  0  0  0  0  0  0  0
   12.9470   -0.3000   22.5300 C   0  0  0  0  0  0  0  0  0  0  0  0
   11.7340   -0.8090   22.1090 C   0  0  0  0  0  0  0  0  0  0  0  0
    7.3550   -0.6580   20.9190 N   0  0  0  0  0  0  0  0  0  0  0  0
    6.6750    0.0320   19.8560 C   0  0  0  0  0  0  0  0  0  0  0  0
    5.4710    0.6580   20.1400 C   0  0  0  0  0  0  0  0  0  0  0  0
    4.8420    1.3190   19.0980 C   0  0  0  0  0  0  0  0  0  0  0  0
    5.4330    1.2880   17.8400 C   0  0  0  0  0  0  0  0  0  0  0  0
    6.5820    0.6920   17.6290 N   0  0  0  0  0  0  0  0  0  0  0  0
    7.2150    0.0610   18.5820 C   0  0  0  0  0  0  0  0  0  0  0  0
  2  1  1  0
  3  2  1  0
  4  3  1  0
  5  4  1  0
  6  5  1  0
  7  6  1  0
  8  7  1  0
  9  4  1  0
  9  8  1  0
 10  2  1  0
 11 10  1  0
 12 11  1  0
 13 12  1  0
 14 13  1  0
 15 14  1  0
 16 15  1  0
 16 11  1  0
M  END
$$$$
