
     RDKit          3D

 23 24  0  0  0  0  0  0  0  0999 V2000
   10.6960    3.8300   24.6530 N   0  0  0  0  0  0  0  0  0  0  0  0
    9.2540    5.5470   23.1090 C   0  0  0  0  0  0  0  0  0  0  0  0
   10.1730    6.0800   25.4640 O   0  0  0  0  0  0  0  0  0  0  0  0
   10.6310    2.7840   23.6260 C   0  0  0  0  0  0  0  0  0  0  0  0
   10.5130   -0.5560   22.7660 N   0  0  0  0  0  0  0  0  0  0  0  0
   11.7760    5.7740   23.6220 O   0  0  0  0  0  0  0  0  0  0  0  0
   10.1630    1.4830   24.2570 C   0  0  0  0  0  0  0  0  0  0  0  0
    7.3290   -0.4190   21.0180 N   0  0  0  0  0  0  0  0  0  0  0  0
    9.1410    0.9610   20.9700 O   0  0  0  0  0  0  0  0  0  0  0  0
   10.9680    0.2190   23.9410 C   0  0  2  0  0  0  0  0  0  0  0  0
    6.6720    0.6100   17.5610 N   0  0  0  0  0  0  0  0  0  0  0  0
   12.4740    0.4640   23.8510 C   0  0  0  0  0  0  0  0  0  0  0  0
   13.2460   -0.8450   23.6860 C   0  0  0  0  0  0  0  0  0  0  0  0
   12.6810   -1.7060   22.5660 C   0  0  0  0  0  0  0  0  0  0  0  0
   11.1810   -1.8620   22.7040 C   0  0  0  0  0  0  0  0  0  0  0  0
    9.0630   -0.7180   22.6750 C   0  0  0  0  0  0  0  0  0  0  0  0
    8.5160    0.0320   21.4740 C   0  0  0  0  0  0  0  0  0  0  0  0
    6.6210    0.0860   19.9080 C   0  0  0  0  0  0  0  0  0  0  0  0
    5.4440    0.8100   20.0510 C   0  0  0  0  0  0  0  0  0  0  0  0
    4.8980    1.4370   18.9470 C   0  0  0  0  0  0  0  0  0  0  0  0
    5.5520    1.3190   17.7320 C   0  0  0  0  0  0  0  0  0  0  0  0
    7.1800   -0.0030   18.6330 C   0  0  0  0  0  0  0  0  0  0  0  0
   10.5580    5.3960   24.2680 S   0  0  1  0  0  0  0  0  0  0  0  0
  4  1  1  0
  7  4  1  0
 10  7  1  6
 10  5  1  0
 12 10  1  0
 13 12  1  0
 14 13  1  0
 15  5  1  0
 15 14  1  0
 16  5  1  0
 17  9  2  0
 17  8  1  0
 17 16  1  0
 18  8  1  0
 19 18  1  0
 20 19  2  0
 21 20  1  0
 21 11  2  0
 22 18  2  0
 22 11  1  0
 23  1  1  0
 23  3  2  0
 23  2  1  6
 23  6  2  0
M  END
