
     RDKit          3D

 17 18  0  0  0  0  0  0  0  0999 V2000
   13.6460   -1.8290   21.4050 Cl  0  0  0  0  0  0  0  0  0  0  0  0
   12.4480   -0.9540   22.3170 C   0  0  0  0  0  0  0  0  0  0  0  0
   12.8570    0.0170   23.2030 C   0  0  0  0  0  0  0  0  0  0  0  0
   11.8990    0.6750   23.9540 C   0  0  0  0  0  0  0  0  0  0  0  0
   10.5550    0.3750   23.7910 C   0  0  0  0  0  0  0  0  0  0  0  0
   11.1110   -1.2650   22.1420 C   0  0  0  0  0  0  0  0  0  0  0  0
   10.1440   -0.5830   22.8760 C   0  0  0  0  0  0  0  0  0  0  0  0
    8.6750   -0.7990   22.5920 C   0  0  0  0  0  0  0  0  0  0  0  0
    8.2720   -0.0190   21.3560 C   0  0  0  0  0  0  0  0  0  0  0  0
    8.8590    1.0050   21.0120 O   0  0  0  0  0  0  0  0  0  0  0  0
    7.1960   -0.5220   20.6780 N   0  0  0  0  0  0  0  0  0  0  0  0
    6.7290    0.0220   19.4810 C   0  0  0  0  0  0  0  0  0  0  0  0
    5.7360    0.9760   19.3700 N   0  0  0  0  0  0  0  0  0  0  0  0
    5.0560    1.6960   20.4450 C   0  0  0  0  0  0  0  0  0  0  0  0
    7.1510   -0.2640   18.2240 C   0  0  0  0  0  0  0  0  0  0  0  0
    6.4340    0.4810   17.3150 N   0  0  0  0  0  0  0  0  0  0  0  0
    5.5990    1.1960   18.0410 C   0  0  0  0  0  0  0  0  0  0  0  0
  2  1  1  0
  3  2  2  0
  4  3  1  0
  5  4  2  0
  6  2  1  0
  7  5  1  0
  7  6  2  0
  8  7  1  0
  9  8  1  0
 10  9  2  0
 11  9  1  0
 12 11  1  0
 13 12  1  0
 14 13  1  0
 15 12  2  0
 16 15  1  0
 17 16  2  0
 17 13  1  0
M  END
