
     RDKit          3D

  4  4  0  0  0  0  0  0  0  0999 V2000
    3.8770    1.7390   -8.0250 N   0  0  0  0  0  0  0  0  0  0  0  0
    4.0490    0.4060   -7.4390 C   0  0  1  0  0  0  0  0  0  0  0  0
    3.0740    0.1000   -6.2660 C   0  0  0  0  0  0  0  0  0  0  0  0
    2.9620   -0.6790   -7.5490 C   0  0  0  0  0  0  0  0  0  0  0  0
  2  1  1  6
  3  2  1  0
  4  3  1  0
  4  2  1  0
M  END
$$$$
