
     RDKit          3D

 13 13  0  0  0  0  0  0  0  0999 V2000
   15.0510   28.4960  -13.3590 N   0  0  0  0  0  0  0  0  0  0  0  0
   14.3490   28.8030  -14.2000 C   0  0  0  0  0  0  0  0  0  0  0  0
   13.4050   29.1800  -15.2540 C   0  0  1  0  0  0  0  0  0  0  0  0
   14.0300   30.1950  -16.2370 C   0  0  1  0  0  0  0  0  0  0  0  0
   15.3640   29.7290  -16.7960 C   0  0  0  0  0  0  0  0  0  0  0  0
   12.8860   27.9290  -15.9800 C   0  0  0  0  0  0  0  0  0  0  0  0
   11.9090   28.3100  -17.0910 C   0  0  0  0  0  0  0  0  0  0  0  0
   12.5450   29.2940  -18.0580 C   0  0  0  0  0  0  0  0  0  0  0  0
   13.0390   30.4760  -17.3120 N   0  0  0  0  0  0  0  0  0  0  0  0
   12.1270   31.8190  -17.3430 S   0  0  2  0  0  0  0  0  0  0  0  0
   10.8610   31.4440  -17.8890 O   0  0  0  0  0  0  0  0  0  0  0  0
   12.8940   32.8200  -18.0110 O   0  0  0  0  0  0  0  0  0  0  0  0
   11.8740   32.3290  -15.6850 C   0  0  0  0  0  0  0  0  0  0  0  0
  2  1  3  0
  3  2  1  1
  4  3  1  0
  4  5  1  6
  6  3  1  0
  7  6  1  0
  8  7  1  0
  9  8  1  0
  9  4  1  0
 10  9  1  0
 11 10  2  0
 12 10  2  0
 10 13  1  1
M  END
