
     RDKit          3D

 49 52  0  0  0  0  0  0  0  0999 V2000
   11.7190    4.5190   22.9870 C   0  0  0  0  0  0  0  0  0  0  0  0
   12.1610    4.0250   23.9760 O   0  0  0  0  0  0  0  0  0  0  0  0
   12.4630    5.5250   22.1790 N   0  0  0  0  0  0  0  0  0  0  0  0
   13.8070    6.0190   22.5850 C   0  0  2  0  0  0  0  0  0  0  0  0
   14.2570    6.9960   21.4970 C   0  0  0  0  0  0  0  0  0  0  0  0
   14.7960    4.8530   22.7950 C   0  0  0  0  0  0  0  0  0  0  0  0
   14.4480    6.2040   20.1980 C   0  0  0  0  0  0  0  0  0  0  0  0
   15.1890    4.1480   21.4890 C   0  0  0  0  0  0  0  0  0  0  0  0
   15.5580    5.1650   20.4060 C   0  0  0  0  0  0  0  0  0  0  0  0
   13.6050    6.8180   23.9080 C   0  0  0  0  0  0  0  0  0  0  0  0
   12.3480    8.1960   23.8420 S   0  0  2  0  0  0  0  0  0  0  0  0
   11.2970    7.7960   22.8630 O   0  0  0  0  0  0  0  0  0  0  0  0
   13.1880    9.3560   23.4130 O   0  0  0  0  0  0  0  0  0  0  0  0
   11.6930    8.3780   25.5890 C   0  0  1  0  0  0  0  0  0  0  0  0
   11.1070    7.0130   26.1120 C   0  0  0  0  0  0  0  0  0  0  0  0
   12.8540    8.8520   26.5240 C   0  0  0  0  0  0  0  0  0  0  0  0
   10.5870    9.4790   25.4920 C   0  0  0  0  0  0  0  0  0  0  0  0
   10.3750    4.1410   22.5080 N   0  0  0  0  0  0  0  0  0  0  0  0
    9.6700    3.1560   23.2840 C   0  0  1  0  0  0  0  0  0  0  0  0
    8.1820    3.5530   23.4810 C   0  0  1  0  0  0  0  0  0  0  0  0
    7.3950    2.3200   23.9870 C   0  0  0  0  0  0  0  0  0  0  0  0
    8.0810    4.6980   24.5330 C   0  0  0  0  0  0  0  0  0  0  0  0
    7.5630    3.9930   22.1360 C   0  0  0  0  0  0  0  0  0  0  0  0
    9.8180    1.8580   22.4860 C   0  0  0  0  0  0  0  0  0  0  0  0
    9.5080    1.7700   21.3390 O   0  0  0  0  0  0  0  0  0  0  0  0
   10.3850    0.6600   23.1920 N   0  0  0  0  0  0  0  0  0  0  0  0
   10.7750    0.6450   24.4550 C   0  0  0  0  0  0  0  0  0  0  0  0
   10.5760   -0.7410   22.4900 C   0  0  1  0  0  0  0  0  0  0  0  0
   11.4780   -1.4270   23.2360 C   0  0  2  0  0  0  0  0  0  0  0  0
   11.6310   -0.6410   24.5660 C   0  0  1  0  0  0  0  0  0  0  0  0
   12.8900   -1.1980   23.8440 C   0  0  1  0  0  0  0  0  0  0  0  0
   13.6140   -2.3890   24.5330 C   0  0  0  0  0  0  0  0  0  0  0  0
   13.7080   -0.1130   23.1000 C   0  0  0  0  0  0  0  0  0  0  0  0
    9.1930   -1.4010   22.3580 C   0  0  0  0  0  0  0  0  0  0  0  0
    8.5170   -1.5510   23.3160 O   0  0  0  0  0  0  0  0  0  0  0  0
    8.6890   -1.8050   21.0080 N   0  0  0  0  0  0  0  0  0  0  0  0
    7.3690   -2.4140   20.9460 C   0  0  1  0  0  0  0  0  0  0  0  0
    6.5040   -1.5730   19.9820 C   0  0  0  0  0  0  0  0  0  0  0  0
    6.1650   -0.2180   20.7140 C   0  0  0  0  0  0  0  0  0  0  0  0
    5.8000    0.9680   19.7570 C   0  0  0  0  0  0  0  0  0  0  0  0
    5.6600    0.5610   18.2570 C   0  0  0  0  0  0  0  0  0  0  0  0
    8.4620   -4.5110   21.3570 O   0  0  0  0  0  0  0  0  0  0  0  0
    7.5690   -3.8730   20.5280 C   0  0  1  0  0  0  0  0  0  0  0  0
    5.3730   -4.4120   19.7540 O   0  0  0  0  0  0  0  0  0  0  0  0
    5.9020   -5.4250   21.7720 N   0  0  0  0  0  0  0  0  0  0  0  0
    4.6030   -6.0480   21.9120 C   0  0  2  0  0  0  0  0  0  0  0  0
    3.7240   -5.2090   22.8470 C   0  0  0  0  0  0  0  0  0  0  0  0
    4.2720   -6.5670   23.3130 C   0  0  0  0  0  0  0  0  0  0  0  0
    6.1860   -4.5600   20.5920 C   0  0  0  0  0  0  0  0  0  0  0  0
  2  1  2  0
  3  1  1  0
  4  3  1  0
  5  4  1  0
  6  4  1  0
  7  5  1  0
  8  6  1  0
  9  8  1  0
  9  7  1  0
  4 10  1  1
 11 10  1  1
 12 11  2  0
 13 11  2  0
 14 11  1  0
 14 15  1  1
 16 14  1  0
 17 14  1  0
 18  1  1  0
 19 18  1  6
 20 19  1  0
 20 21  1  1
 22 20  1  0
 23 20  1  0
 24 19  1  0
 25 24  2  0
 26 24  1  0
 27 26  1  0
 28 26  1  0
 29 28  1  6
 30 27  1  6
 30 29  1  0
 31 30  1  0
 31 29  1  0
 31 32  1  1
 33 31  1  0
 28 34  1  1
 35 34  2  0
 36 34  1  0
 37 36  1  0
 37 38  1  6
 39 38  1  0
 40 39  1  0
 41 40  1  0
 43 42  1  1
 43 37  1  0
 46 45  1  1
 47 46  1  0
 48 46  1  0
 48 47  1  0
 49 44  2  0
 49 45  1  0
 49 43  1  0
M  END
$$$$
