
     RDKit          3D

 16 17  0  0  0  0  0  0  0  0999 V2000
    7.9450   -0.5630   21.1040 N   0  0  0  0  0  0  0  0  0  0  0  0
    9.7530    0.1470   23.8940 C   0  0  0  0  0  0  0  0  0  0  0  0
    9.5080    1.0920   21.0860 O   0  0  0  0  0  0  0  0  0  0  0  0
    9.8010   -0.7110   22.6280 C   0  0  2  0  0  0  0  0  0  0  0  0
    6.7150    0.4210   17.7660 N   0  0  0  0  0  0  0  0  0  0  0  0
   11.2470   -0.9730   22.1710 C   0  0  0  0  0  0  0  0  0  0  0  0
   12.2040   -1.5360   23.2170 C   0  0  2  0  0  0  0  0  0  0  0  0
   13.2790   -0.6580   23.7720 C   0  0  0  0  0  0  0  0  0  0  0  0
   13.6260   -1.7700   22.8420 C   0  0  0  0  0  0  0  0  0  0  0  0
    9.0760    0.0340   21.5340 C   0  0  0  0  0  0  0  0  0  0  0  0
    7.1000   -0.0510   20.0930 C   0  0  0  0  0  0  0  0  0  0  0  0
    7.4650   -0.0860   18.7470 C   0  0  0  0  0  0  0  0  0  0  0  0
    5.5510    0.9820   18.1100 C   0  0  0  0  0  0  0  0  0  0  0  0
    5.1000    1.0660   19.4120 C   0  0  0  0  0  0  0  0  0  0  0  0
    5.8760    0.5490   20.4420 C   0  0  0  0  0  0  0  0  0  0  0  0
    5.4340    0.6890   21.8770 C   0  0  0  0  0  0  0  0  0  0  0  0
  4  2  1  1
  6  4  1  0
  7  6  1  6
  8  7  1  0
  9  8  1  0
  9  7  1  0
 10  3  2  0
 10  1  1  0
 10  4  1  0
 11  1  1  0
 12 11  1  0
 12  5  2  0
 13  5  1  0
 14 13  2  0
 15 14  1  0
 15 11  2  0
 16 15  1  0
M  END
