
     RDKit          3D

 17 19  0  0  0  0  0  0  0  0999 V2000
    6.6870    0.3030   17.7980 N   0  0  0  0  0  0  0  0  0  0  0  0
    5.8760    0.6940   20.4590 C   0  0  0  0  0  0  0  0  0  0  0  0
   13.8660   -1.7210   23.7130 C   0  0  0  0  0  0  0  0  0  0  0  0
   11.2940   -0.0520   22.6490 C   0  0  1  0  0  0  0  0  0  0  0  0
    5.0920    1.1170   19.3910 C   0  0  0  0  0  0  0  0  0  0  0  0
    9.0350    0.2510   21.5880 C   0  0  0  0  0  0  0  0  0  0  0  0
    7.0860    0.0380   20.1540 C   0  0  0  0  0  0  0  0  0  0  0  0
    7.4420   -0.1250   18.8140 C   0  0  0  0  0  0  0  0  0  0  0  0
   11.9990    0.0590   24.0030 C   0  0  0  0  0  0  0  0  0  0  0  0
   12.6100   -2.0480   22.9700 C   0  0  2  0  0  0  0  0  0  0  0  0
   12.1420   -1.0730   21.8880 C   0  0  0  0  0  0  0  0  0  0  0  0
   12.5260   -1.3520   24.2640 C   0  0  1  0  0  0  0  0  0  0  0  0
    5.4570    0.9790   21.8810 C   0  0  0  0  0  0  0  0  0  0  0  0
    7.9280   -0.4080   21.2000 N   0  0  0  0  0  0  0  0  0  0  0  0
    9.4110    1.2990   21.0780 O   0  0  0  0  0  0  0  0  0  0  0  0
    9.8060   -0.4030   22.7200 C   0  0  0  0  0  0  0  0  0  0  0  0
    5.5280    0.9040   18.0980 C   0  0  0  0  0  0  0  0  0  0  0  0
  5  2  1  0
  7  2  2  0
  8  7  1  0
  8  1  2  0
  9  4  1  0
 10  3  1  6
 11 10  1  0
 11  4  1  0
 12 10  1  0
 12  9  1  6
 12  3  1  0
 13  2  1  0
 14  7  1  0
 14  6  1  0
 15  6  2  0
 16  6  1  0
  4 16  1  1
 17  5  2  0
 17  1  1  0
M  END
