
     RDKit          3D

 23 25  0  0  0  0  0  0  0  0999 V2000
    7.2470   -1.3700   21.5400 N   0  0  0  0  0  0  0  0  0  0  0  0
    4.7830    1.6400   18.3250 N   0  0  0  0  0  0  0  0  0  0  0  0
    7.7470   -2.4090   22.4320 C   0  0  0  0  0  0  0  0  0  0  0  0
    5.8310    0.8620   17.9070 C   0  0  0  0  0  0  0  0  0  0  0  0
    6.4150    1.1210   16.8520 O   0  0  0  0  0  0  0  0  0  0  0  0
   11.9470   -1.2680   22.3650 C   0  0  0  0  0  0  0  0  0  0  0  0
    9.2610   -2.3910   22.5060 C   0  0  0  0  0  0  0  0  0  0  0  0
   13.5510    0.3550   23.1190 C   0  0  0  0  0  0  0  0  0  0  0  0
    4.0100    0.4470   21.7300 C   0  0  0  0  0  0  0  0  0  0  0  0
   12.6340    0.8330   24.0390 C   0  0  0  0  0  0  0  0  0  0  0  0
   11.3690    0.2710   24.1270 C   0  0  0  0  0  0  0  0  0  0  0  0
    3.1050    2.3630   19.9130 C   0  0  0  0  0  0  0  0  0  0  0  0
    6.2420   -0.1700   18.8090 C   0  0  0  0  0  0  0  0  0  0  0  0
    4.6080    0.5380   20.4710 C   0  0  0  0  0  0  0  0  0  0  0  0
    5.6790   -0.3500   20.0330 C   0  0  0  0  0  0  0  0  0  0  0  0
    4.1600    1.5210   19.5650 C   0  0  0  0  0  0  0  0  0  0  0  0
    2.5090    2.2340   21.1560 C   0  0  0  0  0  0  0  0  0  0  0  0
    6.1080   -1.5120   20.8640 C   0  0  0  0  0  0  0  0  0  0  0  0
    9.7300   -1.2930   23.3340 N   0  0  0  0  0  0  0  0  0  0  0  0
    5.4260   -2.5340   20.9380 O   0  0  0  0  0  0  0  0  0  0  0  0
   13.2100   -0.6990   22.2920 C   0  0  0  0  0  0  0  0  0  0  0  0
   11.0130   -0.7760   23.2790 C   0  0  0  0  0  0  0  0  0  0  0  0
    2.9610    1.2910   22.0600 C   0  0  0  0  0  0  0  0  0  0  0  0
  3  1  1  0
  4  2  1  0
  5  4  2  0
  7  3  1  0
 10  8  2  0
 11 10  1  0
 13  4  1  0
 14  9  1  0
 15 14  1  0
 15 13  2  0
 16 14  2  0
 16 12  1  0
 16  2  1  0
 17 12  2  0
 18 15  1  0
 18  1  1  0
 19  7  1  0
 20 18  2  0
 21  8  1  0
 21  6  2  0
 22 19  1  0
 22 11  2  0
 22  6  1  0
 23 17  1  0
 23  9  2  0
M  END
