
     RDKit          3D

 29 32  0  0  0  0  0  0  0  0999 V2000
    9.3850    1.3540   21.0880 O   0  0  0  0  0  0  0  0  0  0  0  0
    9.1130    0.2890   21.6300 C   0  0  0  0  0  0  0  0  0  0  0  0
    8.1310   -0.6740   20.9900 C   0  0  0  0  0  0  0  0  0  0  0  0
    7.1960    0.0000   20.0140 C   0  0  0  0  0  0  0  0  0  0  0  0
    7.4730    0.0150   18.6560 C   0  0  0  0  0  0  0  0  0  0  0  0
    6.6520    0.5290   17.7310 N   0  0  0  0  0  0  0  0  0  0  0  0
    5.4980    1.0580   18.1590 C   0  0  0  0  0  0  0  0  0  0  0  0
    5.1320    1.1040   19.4900 C   0  0  0  0  0  0  0  0  0  0  0  0
    5.9990    0.5690   20.4240 C   0  0  0  0  0  0  0  0  0  0  0  0
    9.6970   -0.0930   22.8020 N   0  0  0  0  0  0  0  0  0  0  0  0
   10.9060    0.6020   23.2280 C   0  0  0  0  0  0  0  0  0  0  0  0
   12.0560   -0.3370   23.4370 C   0  0  0  0  0  0  0  0  0  0  0  0
   12.9060   -0.9400   22.4600 C   0  0  0  0  0  0  0  0  0  0  0  0
   13.7090   -1.7920   23.1580 C   0  0  0  0  0  0  0  0  0  0  0  0
   12.3390   -0.7860   24.6700 N   0  0  0  0  0  0  0  0  0  0  0  0
   13.3460   -1.6810   24.4820 N   0  0  0  0  0  0  0  0  0  0  0  0
   13.8870   -2.4000   25.6280 C   0  0  0  0  0  0  0  0  0  0  0  0
    9.2010   -1.1530   23.6250 C   0  0  0  0  0  0  0  0  0  0  0  0
    9.5910   -2.4750   23.3970 C   0  0  0  0  0  0  0  0  0  0  0  0
    9.2250   -3.4710   24.2850 C   0  0  0  0  0  0  0  0  0  0  0  0
    8.4650   -3.1820   25.4190 C   0  0  0  0  0  0  0  0  0  0  0  0
    8.0500   -1.8640   25.6150 C   0  0  0  0  0  0  0  0  0  0  0  0
    8.4080   -0.8620   24.7340 C   0  0  0  0  0  0  0  0  0  0  0  0
    8.1620   -4.2320   26.4220 C   0  0  0  0  0  0  0  0  0  0  0  0
    9.1400   -5.1310   26.6500 N   0  0  0  0  0  0  0  0  0  0  0  0
    8.9380   -6.0350   27.6260 C   0  0  0  0  0  0  0  0  0  0  0  0
    7.7910   -6.0910   28.3970 C   0  0  0  0  0  0  0  0  0  0  0  0
    6.7930   -5.1750   28.1420 C   0  0  0  0  0  0  0  0  0  0  0  0
    6.9680   -4.2340   27.1400 C   0  0  0  0  0  0  0  0  0  0  0  0
  2  1  2  0
  3  2  1  0
  4  3  1  0
  5  4  2  0
  6  5  1  0
  7  6  2  0
  8  7  1  0
  9  8  2  0
  9  4  1  0
 10  2  1  0
 11 10  1  0
 12 11  1  0
 13 12  1  0
 14 13  2  0
 15 12  2  0
 16 15  1  0
 16 14  1  0
 17 16  1  0
 18 10  1  0
 19 18  2  0
 20 19  1  0
 21 20  2  0
 22 21  1  0
 23 22  2  0
 23 18  1  0
 24 21  1  0
 25 24  2  0
 26 25  1  0
 27 26  2  0
 28 27  1  0
 29 24  1  0
 29 28  2  0
M  END
