
     RDKit          3D

 19 21  0  0  0  0  0  0  0  0999 V2000
    7.1950   -4.5680   21.2730 N   0  0  0  0  0  0  0  0  0  0  0  0
    7.4510   -2.9950   19.3850 C   0  0  0  0  0  0  0  0  0  0  0  0
    5.6630   -4.5310   19.6390 O   0  0  0  0  0  0  0  0  0  0  0  0
    6.6980   -4.0840   20.1170 C   0  0  0  0  0  0  0  0  0  0  0  0
   13.1960   -0.8070   24.9210 C   0  0  0  0  0  0  0  0  0  0  0  0
   13.7240   -1.8750   25.6330 C   0  0  0  0  0  0  0  0  0  0  0  0
   13.0540   -3.0740   25.7040 C   0  0  0  0  0  0  0  0  0  0  0  0
   11.8390   -3.1810   25.0300 C   0  0  0  0  0  0  0  0  0  0  0  0
    6.3660   -5.4360   22.1180 C   0  0  0  0  0  0  0  0  0  0  0  0
    7.2110   -6.3550   22.9770 C   0  0  0  0  0  0  0  0  0  0  0  0
    8.0760   -5.5430   23.9440 C   0  0  0  0  0  0  0  0  0  0  0  0
    8.4500   -4.1890   23.3310 C   0  0  2  0  0  0  0  0  0  0  0  0
    8.5250   -4.3230   21.8210 C   0  0  0  0  0  0  0  0  0  0  0  0
    9.7210   -3.6030   23.9040 C   0  0  0  0  0  0  0  0  0  0  0  0
   11.3030   -2.1110   24.3050 C   0  0  0  0  0  0  0  0  0  0  0  0
   11.9930   -0.9050   24.2550 C   0  0  0  0  0  0  0  0  0  0  0  0
   10.0850   -2.3800   23.6850 N   0  0  0  0  0  0  0  0  0  0  0  0
   10.7760   -4.5480   24.9280 S   0  0  0  0  0  0  0  0  0  0  0  0
    8.8800   -3.6780   18.5240 S   0  0  0  0  0  0  0  0  0  0  0  0
  4  3  2  0
  4  2  1  0
  4  1  1  0
  6  5  2  0
  7  6  1  0
  8  7  2  0
  9  1  1  0
 10  9  1  0
 11 10  1  0
 12 11  1  0
 13  1  1  0
 13 12  1  0
 12 14  1  1
 15  8  1  0
 16 15  2  0
 16  5  1  0
 17 14  2  0
 17 15  1  0
 18 14  1  0
 18  8  1  0
  2 19  1  0
M  END
