
     RDKit          3D

  9  9  0  0  0  0  0  0  0  0999 V2000
    6.1950   -5.1510   19.7590 N   0  0  0  0  0  0  0  0  0  0  0  0
    6.9470   -4.1220   19.9440 C   0  0  0  0  0  0  0  0  0  0  0  0
    6.6750   -3.2960   21.1790 C   0  0  0  0  0  0  0  0  0  0  0  0
    7.6740   -2.5180   21.6290 N   0  0  0  0  0  0  0  0  0  0  0  0
    7.4340   -1.8060   22.7440 C   0  0  0  0  0  0  0  0  0  0  0  0
    6.2360   -1.8470   23.4200 C   0  0  0  0  0  0  0  0  0  0  0  0
    5.2790   -2.6840   22.8870 C   0  0  0  0  0  0  0  0  0  0  0  0
    5.4690   -3.4020   21.7690 N   0  0  0  0  0  0  0  0  0  0  0  0
    8.3450   -3.6710   18.8710 S   0  0  0  0  0  0  0  0  0  0  0  0
  2  1  2  0
  3  2  1  0
  4  3  2  0
  5  4  1  0
  6  5  2  0
  7  6  1  0
  8  7  2  0
  8  3  1  0
  2  9  1  0
M  END
