
     RDKit          3D

 15 15  0  0  0  0  0  0  0  0999 V2000
    5.5400  -30.1000   10.7760 C   0  0  0  0  0  0  0  0  0  0  0  0
    5.0060  -29.9040    9.3560 C   0  0  0  0  0  0  0  0  0  0  0  0
    4.6560  -30.8640    8.7590 O   0  0  0  0  0  0  0  0  0  0  0  0
    4.8820  -28.5930    8.7240 N   0  0  0  0  0  0  0  0  0  0  0  0
    5.3110  -27.3770    9.4010 C   0  0  0  0  0  0  0  0  0  0  0  0
    4.3650  -26.1910    9.3630 C   0  0  0  0  0  0  0  0  0  0  0  0
    3.9190  -25.6160   10.5430 C   0  0  0  0  0  0  0  0  0  0  0  0
    3.0820  -24.5140   10.4900 C   0  0  0  0  0  0  0  0  0  0  0  0
    2.7080  -23.9900    9.2640 C   0  0  0  0  0  0  0  0  0  0  0  0
    3.1660  -24.5600    8.0990 C   0  0  0  0  0  0  0  0  0  0  0  0
    3.9950  -25.6550    8.1530 C   0  0  0  0  0  0  0  0  0  0  0  0
    1.6150  -22.5510    9.1390 S   0  0  2  0  0  0  0  0  0  0  0  0
    1.7950  -21.6350   10.2610 O   0  0  0  0  0  0  0  0  0  0  0  0
    0.2080  -22.9390    9.2780 O   0  0  0  0  0  0  0  0  0  0  0  0
    1.8800  -21.7140    7.6800 N   0  0  0  0  0  0  0  0  0  0  0  0
  2  1  1  0
  3  2  2  0
  4  2  1  0
  5  4  1  0
  6  5  1  0
  7  6  2  0
  8  7  1  0
  9  8  2  0
 10  9  1  0
 11 10  2  0
 11  6  1  0
 12  9  1  0
 13 12  2  0
 14 12  2  0
 12 15  1  6
M  END
