
     RDKit          3D

 25 28  0  0  0  0  0  0  0  0999 V2000
   13.9970   -1.7320   20.9030 Cl  0  0  0  0  0  0  0  0  0  0  0  0
   12.9710   -0.8670   22.0040 C   0  0  0  0  0  0  0  0  0  0  0  0
   13.5280    0.0570   22.8620 C   0  0  0  0  0  0  0  0  0  0  0  0
   12.7150    0.7140   23.7670 C   0  0  0  0  0  0  0  0  0  0  0  0
   11.6210   -1.1420   22.0080 C   0  0  0  0  0  0  0  0  0  0  0  0
   10.7860   -0.4730   22.8980 C   0  0  0  0  0  0  0  0  0  0  0  0
   11.3550    0.4430   23.7800 C   0  0  0  0  0  0  0  0  0  0  0  0
   10.6060    1.1200   24.7060 O   0  0  0  0  0  0  0  0  0  0  0  0
    9.5050    0.3510   25.2110 C   0  0  0  0  0  0  0  0  0  0  0  0
    8.5440   -0.0800   24.1270 C   0  0  0  0  0  0  0  0  0  0  0  0
    9.2820   -0.6450   22.8760 C   0  0  1  0  0  0  0  0  0  0  0  0
    8.7790    0.0680   21.6190 C   0  0  0  0  0  0  0  0  0  0  0  0
    9.3440    1.0570   21.1560 O   0  0  0  0  0  0  0  0  0  0  0  0
    7.6540   -0.4630   21.0930 N   0  0  0  0  0  0  0  0  0  0  0  0
    6.8900    0.0610   20.0240 C   0  0  0  0  0  0  0  0  0  0  0  0
    7.4110    0.0670   18.7330 C   0  0  0  0  0  0  0  0  0  0  0  0
    6.7880    0.6180   17.6880 N   0  0  0  0  0  0  0  0  0  0  0  0
    5.5880    1.1700   17.8980 C   0  0  0  0  0  0  0  0  0  0  0  0
    5.6310    0.6380   20.2270 C   0  0  0  0  0  0  0  0  0  0  0  0
    4.7630    0.7520   21.3220 N   0  0  0  0  0  0  0  0  0  0  0  0
    5.0130    0.3430   22.7030 C   0  0  0  0  0  0  0  0  0  0  0  0
    4.9710    1.1940   19.1450 C   0  0  0  0  0  0  0  0  0  0  0  0
    3.7300    1.6300   19.5900 N   0  0  0  0  0  0  0  0  0  0  0  0
    3.5860    1.3610   20.9200 C   0  0  0  0  0  0  0  0  0  0  0  0
    2.6150    1.5860   21.6270 O   0  0  0  0  0  0  0  0  0  0  0  0
  2  1  1  0
  3  2  2  0
  4  3  1  0
  5  2  1  0
  6  5  2  0
  7  6  1  0
  7  4  2  0
  8  7  1  0
  9  8  1  0
 10  9  1  0
 11 10  1  0
 11  6  1  0
 11 12  1  6
 13 12  2  0
 14 12  1  0
 15 14  1  0
 16 15  2  0
 17 16  1  0
 18 17  2  0
 19 15  1  0
 20 19  1  0
 21 20  1  0
 22 19  2  0
 22 18  1  0
 23 22  1  0
 24 23  1  0
 24 20  1  0
 25 24  2  0
M  END
