
     RDKit          3D

 20 21  0  0  0  0  0  0  0  0999 V2000
   13.8710   -1.8970   21.2100 Cl  0  0  0  0  0  0  0  0  0  0  0  0
   12.7300   -1.0490   22.2150 C   0  0  0  0  0  0  0  0  0  0  0  0
   13.1930   -0.1730   23.1760 C   0  0  0  0  0  0  0  0  0  0  0  0
   12.2790    0.4260   24.0270 C   0  0  0  0  0  0  0  0  0  0  0  0
   10.9230    0.1640   23.8900 C   0  0  0  0  0  0  0  0  0  0  0  0
   11.3840   -1.3080   22.0590 C   0  0  0  0  0  0  0  0  0  0  0  0
   10.4630   -0.6910   22.8980 C   0  0  0  0  0  0  0  0  0  0  0  0
    8.9770   -0.9380   22.6830 C   0  0  1  0  0  0  0  0  0  0  0  0
    8.1580   -0.9020   23.9710 C   0  0  0  0  0  0  0  0  0  0  0  0
    6.8000   -1.2200   23.6900 O   0  0  0  0  0  0  0  0  0  0  0  0
    8.4580    0.0360   21.6250 C   0  0  0  0  0  0  0  0  0  0  0  0
    8.7840    1.2140   21.6070 O   0  0  0  0  0  0  0  0  0  0  0  0
    7.7050   -0.5270   20.6630 N   0  0  0  0  0  0  0  0  0  0  0  0
    6.7100   -0.0620   19.7810 C   0  0  0  0  0  0  0  0  0  0  0  0
    5.6590    0.7800   20.1880 C   0  0  0  0  0  0  0  0  0  0  0  0
    5.2640    0.9280   21.6350 C   0  0  0  0  0  0  0  0  0  0  0  0
    6.9850   -0.1670   18.4200 C   0  0  0  0  0  0  0  0  0  0  0  0
    6.3230    0.5040   17.4770 N   0  0  0  0  0  0  0  0  0  0  0  0
    5.3060    1.2770   17.8730 C   0  0  0  0  0  0  0  0  0  0  0  0
    4.9450    1.4380   19.1960 C   0  0  0  0  0  0  0  0  0  0  0  0
  2  1  1  0
  3  2  2  0
  4  3  1  0
  5  4  2  0
  6  2  1  0
  7  6  2  0
  7  5  1  0
  8  7  1  0
  8  9  1  1
 10  9  1  0
 11  8  1  0
 12 11  2  0
 13 11  1  0
 14 13  1  0
 15 14  2  0
 16 15  1  0
 17 14  1  0
 18 17  2  0
 19 18  1  0
 20 19  2  0
 20 15  1  0
M  END
