
     RDKit          3D

  9  9  0  0  0  0  0  0  0  0999 V2000
   28.1160   50.2760   -7.7350 C   0  0  0  0  0  0  0  0  0  0  0  0
   28.5470   51.4210   -6.8180 C   0  0  0  0  0  0  0  0  0  0  0  0
   28.5800   52.7490   -7.2390 C   0  0  0  0  0  0  0  0  0  0  0  0
   28.9940   53.7100   -6.3260 C   0  0  0  0  0  0  0  0  0  0  0  0
   29.0840   55.1870   -6.6840 C   0  0  0  0  0  0  0  0  0  0  0  0
   29.3030   53.3450   -5.1050 N   0  0  0  0  0  0  0  0  0  0  0  0
   29.2470   52.0930   -4.7430 C   0  0  0  0  0  0  0  0  0  0  0  0
   29.6020   51.7030   -3.3930 N   0  0  0  0  0  0  0  0  0  0  0  0
   28.8700   51.1650   -5.5840 N   0  0  0  0  0  0  0  0  0  0  0  0
  2  1  1  0
  3  2  1  0
  4  3  1  0
  5  4  1  0
  6  4  1  0
  7  6  1  0
  8  7  1  0
  9  2  1  0
  9  7  1  0
M  END
$$$$
