
     RDKit          3D

  4  3  0  0  0  0  0  0  0  0999 V2000
   17.8450  -17.9250   30.1140 N   0  0  0  0  0  0  0  0  0  0  0  0
   16.6220  -18.4550   29.4880 C   0  0  0  0  0  0  0  0  0  0  0  0
   16.8390  -19.8980   29.0470 C   0  0  0  0  0  0  0  0  0  0  0  0
   17.9700  -20.3130   28.9120 O   0  0  0  0  0  0  0  0  0  0  0  0
  2  1  1  0
  3  2  1  0
  4  3  1  0
M  END
$$$$
