
     RDKit          3D

 22 23  0  0  0  0  0  0  0  0999 V2000
   13.9810   -1.6260   21.0670 Cl  0  0  0  0  0  0  0  0  0  0  0  0
   12.9250   -0.6790   22.0800 C   0  0  0  0  0  0  0  0  0  0  0  0
   13.4720    0.2480   22.9420 C   0  0  0  0  0  0  0  0  0  0  0  0
   12.6280    0.9420   23.7940 C   0  0  0  0  0  0  0  0  0  0  0  0
   11.2610    0.7140   23.7620 C   0  0  0  0  0  0  0  0  0  0  0  0
   11.5630   -0.9060   22.0240 C   0  0  0  0  0  0  0  0  0  0  0  0
   10.7140   -0.1970   22.8680 C   0  0  0  0  0  0  0  0  0  0  0  0
    9.2070   -0.4150   22.7980 C   0  0  2  0  0  0  0  0  0  0  0  0
    8.8350   -1.8050   23.3540 C   0  0  0  0  0  0  0  0  0  0  0  0
    8.6770    0.1370   21.4640 C   0  0  0  0  0  0  0  0  0  0  0  0
    9.1310    1.1650   20.9750 O   0  0  0  0  0  0  0  0  0  0  0  0
    7.6230   -0.5290   20.9150 N   0  0  0  0  0  0  0  0  0  0  0  0
    6.8590   -0.0600   19.8240 C   0  0  0  0  0  0  0  0  0  0  0  0
    5.6520    0.6140   20.0610 C   0  0  0  0  0  0  0  0  0  0  0  0
    5.1840    0.7270   21.3910 N   0  0  0  0  0  0  0  0  0  0  0  0
    3.9860    1.1710   21.8470 C   0  0  0  0  0  0  0  0  0  0  0  0
    3.8280    1.1370   23.3380 C   0  0  0  0  0  0  0  0  0  0  0  0
    3.0840    1.5600   21.1050 O   0  0  0  0  0  0  0  0  0  0  0  0
    4.9700    1.1760   18.9850 C   0  0  0  0  0  0  0  0  0  0  0  0
    5.5260    1.0430   17.7290 C   0  0  0  0  0  0  0  0  0  0  0  0
    6.6760    0.4030   17.4790 N   0  0  0  0  0  0  0  0  0  0  0  0
    7.3180   -0.1440   18.5140 C   0  0  0  0  0  0  0  0  0  0  0  0
  2  1  1  0
  3  2  2  0
  4  3  1  0
  5  4  2  0
  6  2  1  0
  7  6  2  0
  7  5  1  0
  8  7  1  0
  8  9  1  6
 10  8  1  0
 11 10  2  0
 12 10  1  0
 13 12  1  0
 14 13  2  0
 15 14  1  0
 16 15  1  0
 17 16  1  0
 18 16  2  0
 19 14  1  0
 20 19  2  0
 21 20  1  0
 22 21  2  0
 22 13  1  0
M  END
