
     RDKit          3D

 30 33  0  0  0  0  0  0  0  0999 V2000
   13.4080    6.7370   22.2740 O   0  0  0  0  0  0  0  0  0  0  0  0
   13.3710    5.5230   22.4450 C   0  0  0  0  0  0  0  0  0  0  0  0
   12.5630    4.3680   21.8720 C   0  0  0  0  0  0  0  0  0  0  0  0
   14.0780    4.7070   23.2490 N   0  0  0  0  0  0  0  0  0  0  0  0
   13.5690    3.4780   22.6100 C   0  0  1  0  0  0  0  0  0  0  0  0
   12.8090    2.6330   23.4920 O   0  0  0  0  0  0  0  0  0  0  0  0
   12.6070    1.3360   23.0710 C   0  0  0  0  0  0  0  0  0  0  0  0
   13.6510    0.5260   22.6520 C   0  0  0  0  0  0  0  0  0  0  0  0
   13.3590   -0.7700   22.2690 C   0  0  0  0  0  0  0  0  0  0  0  0
   14.6690   -1.8380   21.8440 Cl  0  0  0  0  0  0  0  0  0  0  0  0
   11.3020    0.8710   23.0990 C   0  0  0  0  0  0  0  0  0  0  0  0
   11.0450   -0.4290   22.6900 C   0  0  0  0  0  0  0  0  0  0  0  0
   12.0710   -1.2660   22.2740 C   0  0  0  0  0  0  0  0  0  0  0  0
    9.7170   -0.7810   22.6840 O   0  0  0  0  0  0  0  0  0  0  0  0
    9.3480   -2.0780   22.1920 C   0  0  0  0  0  0  0  0  0  0  0  0
    7.8570   -2.1760   22.2840 C   0  0  0  0  0  0  0  0  0  0  0  0
    7.2170   -1.1540   21.4680 N   0  0  0  0  0  0  0  0  0  0  0  0
    6.1050   -1.3990   20.7740 C   0  0  0  0  0  0  0  0  0  0  0  0
    5.5260   -2.4830   20.8250 O   0  0  0  0  0  0  0  0  0  0  0  0
    5.6120   -0.2890   19.9120 C   0  0  0  0  0  0  0  0  0  0  0  0
    4.6780    0.7260   20.4020 C   0  0  0  0  0  0  0  0  0  0  0  0
    4.1420    0.7130   21.6920 C   0  0  0  0  0  0  0  0  0  0  0  0
    3.2620    1.7060   22.0890 C   0  0  0  0  0  0  0  0  0  0  0  0
    2.9140    2.7240   21.2190 C   0  0  0  0  0  0  0  0  0  0  0  0
    3.4270    2.7580   19.9310 C   0  0  0  0  0  0  0  0  0  0  0  0
    4.3110    1.7620   19.5130 C   0  0  0  0  0  0  0  0  0  0  0  0
    4.8530    1.7840   18.2260 N   0  0  0  0  0  0  0  0  0  0  0  0
    5.7450    0.8580   17.7450 C   0  0  0  0  0  0  0  0  0  0  0  0
    6.2590    1.0050   16.6260 O   0  0  0  0  0  0  0  0  0  0  0  0
    6.0900   -0.2050   18.6430 C   0  0  0  0  0  0  0  0  0  0  0  0
  2  1  2  0
  3  2  1  0
  4  2  1  0
  5  4  1  0
  5  3  1  0
  5  6  1  1
  7  6  1  0
  8  7  2  0
  9  8  1  0
 10  9  1  0
 11  7  1  0
 12 11  2  0
 13 12  1  0
 13  9  2  0
 14 12  1  0
 15 14  1  0
 16 15  1  0
 17 16  1  0
 18 17  1  0
 19 18  2  0
 20 18  1  0
 21 20  1  0
 22 21  2  0
 23 22  1  0
 24 23  2  0
 25 24  1  0
 26 25  2  0
 26 21  1  0
 27 26  1  0
 28 27  1  0
 29 28  2  0
 30 28  1  0
 30 20  2  0
M  END
