
     RDKit          3D

 20 22  0  0  0  0  0  0  0  0999 V2000
    7.1450   -0.7720   20.0320 N   0  0  0  0  0  0  0  0  0  0  0  0
   12.4630   -0.8180   22.4320 C   0  0  2  0  0  0  0  0  0  0  0  0
    8.6060    0.8140   20.7590 O   0  0  0  0  0  0  0  0  0  0  0  0
   13.9990   -1.4000   21.8580 Cl  0  0  0  0  0  0  0  0  0  0  0  0
   12.4200    0.0310   23.5200 C   0  0  0  0  0  0  0  0  0  0  0  0
    6.4090    0.3470   17.9380 N   0  0  0  0  0  0  0  0  0  0  0  0
   11.1850    0.3460   24.0670 C   0  0  0  0  0  0  0  0  0  0  0  0
    4.7200    1.4640   18.8950 N   0  0  0  0  0  0  0  0  0  0  0  0
   10.0230   -0.1490   23.4940 C   0  0  0  0  0  0  0  0  0  0  0  0
   10.0770   -0.9520   22.3620 C   0  0  0  0  0  0  0  0  0  0  0  0
    8.8220   -1.4110   21.6610 C   0  0  0  0  0  0  0  0  0  0  0  0
    8.1810   -0.3380   20.8030 C   0  0  2  0  0  0  0  0  0  0  0  0
    6.3600    0.0890   19.3010 C   0  0  0  0  0  0  0  0  0  0  0  0
    5.4000    1.1780   17.7400 C   0  0  0  0  0  0  0  0  0  0  0  0
    3.5820    2.2400   19.1330 C   0  0  0  0  0  0  0  0  0  0  0  0
    3.0800    2.3140   20.3840 C   0  0  0  0  0  0  0  0  0  0  0  0
    3.7030    1.6220   21.4490 C   0  0  0  0  0  0  0  0  0  0  0  0
    4.8180    0.8660   21.2320 C   0  0  0  0  0  0  0  0  0  0  0  0
    5.3490    0.7650   19.9210 C   0  0  0  0  0  0  0  0  0  0  0  0
   11.3170   -1.2970   21.8420 C   0  0  0  0  0  0  0  0  0  0  0  0
  2  4  1  1
  5  2  1  0
  7  5  1  0
  9  7  1  0
 10  9  1  0
 11 10  1  0
 12 11  1  0
 12  3  1  6
 12  1  1  0
 13  6  1  0
 13  1  1  0
 14  8  1  0
 14  6  1  0
 15  8  1  0
 16 15  1  0
 17 16  1  0
 18 17  1  0
 19 18  1  0
 19  8  1  0
 19 13  1  0
 20 10  1  0
 20  2  1  0
M  END
$$$$
