
     RDKit          3D

 14 15  0  0  0  0  0  0  0  0999 V2000
   10.3030   39.6120  -21.4750 C   0  0  0  0  0  0  0  0  0  0  0  0
   11.0150   38.3350  -21.4620 N   0  0  0  0  0  0  0  0  0  0  0  0
   12.2560   38.3370  -22.2580 C   0  0  1  0  0  0  0  0  0  0  0  0
   13.3370   39.1170  -21.5100 C   0  0  0  0  0  0  0  0  0  0  0  0
   14.5880   38.3560  -21.4630 N   0  0  0  0  0  0  0  0  0  0  0  0
   14.4670   37.0870  -20.7310 C   0  0  0  0  0  0  0  0  0  0  0  0
   13.3070   36.2610  -21.2660 C   0  0  0  0  0  0  0  0  0  0  0  0
   12.7110   36.9000  -22.5210 C   0  0  0  0  0  0  0  0  0  0  0  0
   15.7980   38.9380  -21.7770 C   0  0  0  0  0  0  0  0  0  0  0  0
   16.8850   38.1810  -21.6050 N   0  0  0  0  0  0  0  0  0  0  0  0
   18.1040   38.6850  -21.8940 N   0  0  0  0  0  0  0  0  0  0  0  0
   18.2130   39.9270  -22.3490 C   0  0  0  0  0  0  0  0  0  0  0  0
   17.1290   40.7480  -22.5470 C   0  0  0  0  0  0  0  0  0  0  0  0
   15.8730   40.2510  -22.2560 C   0  0  0  0  0  0  0  0  0  0  0  0
  2  1  1  0
  3  2  1  1
  4  3  1  0
  5  4  1  0
  6  5  1  0
  7  6  1  0
  8  7  1  0
  8  3  1  0
  9  5  1  0
 10  9  2  0
 11 10  1  0
 12 11  2  0
 13 12  1  0
 14  9  1  0
 14 13  2  0
M  END
