
     RDKit          3D

  9  9  0  0  0  0  0  0  0  0999 V2000
   28.5900   52.5410   -6.6250 C   0  0  0  0  0  0  0  0  0  0  0  0
   28.9500   51.1400   -6.1830 C   0  0  2  0  0  0  0  0  0  0  0  0
   29.5080   50.8990   -5.0280 N   0  0  0  0  0  0  0  0  0  0  0  0
   29.7950   49.6200   -4.7720 C   0  0  0  0  0  0  0  0  0  0  0  0
   29.4850   48.7330   -5.7930 C   0  0  2  0  0  0  0  0  0  0  0  0
   28.7880   49.6940   -7.0370 S   0  0  0  0  0  0  0  0  0  0  0  0
   29.7340   47.2370   -5.6490 C   0  0  0  0  0  0  0  0  0  0  0  0
   30.4550   46.8400   -4.7030 O   0  0  0  0  0  0  0  0  0  0  0  0
   29.2010   46.4180   -6.4320 O   0  0  0  0  0  0  0  0  0  0  0  0
  2  1  1  6
  3  2  1  0
  4  3  1  0
  5  4  1  0
  6  5  1  0
  6  2  1  0
  5  7  1  1
  8  7  1  0
  9  7  1  0
M  CHG  1   9  -1
M  END
$$$$
