
     RDKit          3D

  7  7  0  0  0  0  0  0  0  0999 V2000
    3.8630    2.0700   19.5890 N   0  0  0  0  0  0  0  0  0  0  0  0
    4.8270    1.2310   19.1790 C   0  0  0  0  0  0  0  0  0  0  0  0
    5.2660    0.1470   19.9800 C   0  0  0  0  0  0  0  0  0  0  0  0
    6.7040   -0.5050   18.3020 C   0  0  0  0  0  0  0  0  0  0  0  0
    5.4380    1.3570   17.9020 C   0  0  0  0  0  0  0  0  0  0  0  0
    6.1890   -0.7300   19.5570 N   0  0  0  0  0  0  0  0  0  0  0  0
    6.3730    0.5000   17.4690 N   0  0  0  0  0  0  0  0  0  0  0  0
  2  1  1  0
  3  2  2  0
  5  2  1  0
  6  3  1  0
  6  4  2  0
  7  5  2  0
  7  4  1  0
M  END
