
     RDKit          3D

 16 17  0  0  0  0  0  0  0  0999 V2000
   30.7920   46.7280   -8.1360 O   0  0  0  0  0  0  0  0  0  0  0  0
   29.9600   46.7310   -7.1770 C   0  0  0  0  0  0  0  0  0  0  0  0
   28.9990   45.9440   -7.2240 O   0  0  0  0  0  0  0  0  0  0  0  0
   30.1020   47.6950   -5.9860 C   0  0  1  0  0  0  0  0  0  0  0  0
   31.6000   47.8720   -5.6880 C   0  0  1  0  0  0  0  0  0  0  0  0
   32.2930   46.8510   -5.0610 C   0  0  0  0  0  0  0  0  0  0  0  0
   33.6540   46.9780   -4.8050 C   0  0  0  0  0  0  0  0  0  0  0  0
   34.3360   48.1210   -5.1980 C   0  0  0  0  0  0  0  0  0  0  0  0
   33.6500   49.1450   -5.8210 C   0  0  0  0  0  0  0  0  0  0  0  0
   32.2930   49.0040   -6.0800 C   0  0  0  0  0  0  0  0  0  0  0  0
   29.3710   49.0260   -6.2270 C   0  0  0  0  0  0  0  0  0  0  0  0
   29.1560   49.8910   -5.1660 C   0  0  0  0  0  0  0  0  0  0  0  0
   28.4920   51.0890   -5.3360 C   0  0  0  0  0  0  0  0  0  0  0  0
   28.0550   51.4360   -6.5920 C   0  0  0  0  0  0  0  0  0  0  0  0
   28.2720   50.5790   -7.6610 C   0  0  0  0  0  0  0  0  0  0  0  0
   28.9180   49.3700   -7.4840 C   0  0  0  0  0  0  0  0  0  0  0  0
  2  1  1  0
  3  2  1  0
  4  2  1  6
  5  4  1  0
  5  6  1  6
  7  6  1  0
  8  7  1  0
  9  8  1  0
 10  5  1  0
 10  9  1  0
 11  4  1  0
 12 11  1  0
 13 12  1  0
 14 13  1  0
 15 14  1  0
 16 11  1  0
 16 15  1  0
M  CHG  1   1  -1
M  END
$$$$
