
     RDKit          3D

 25 27  0  0  0  0  0  0  0  0999 V2000
    6.6490    0.5860   17.5980 N   0  0  0  0  0  0  0  0  0  0  0  0
    9.2760   -0.6990   22.4900 N   0  0  0  0  0  0  0  0  0  0  0  0
    7.4930   -0.5740   20.9800 N   0  0  0  0  0  0  0  0  0  0  0  0
    7.2240   -3.8410   24.9300 C   0  0  0  0  0  0  0  0  0  0  0  0
   13.3270    0.2030   23.0790 C   0  0  0  0  0  0  0  0  0  0  0  0
    9.2330    0.8870   20.8710 O   0  0  0  0  0  0  0  0  0  0  0  0
    9.5070   -4.5680   25.3120 C   0  0  0  0  0  0  0  0  0  0  0  0
   12.3560    0.8310   23.8470 C   0  0  0  0  0  0  0  0  0  0  0  0
    5.5260    1.2690   17.8570 C   0  0  0  0  0  0  0  0  0  0  0  0
    8.4720   -1.4950   23.4250 C   0  0  0  0  0  0  0  0  0  0  0  0
   11.6130   -1.1290   22.0220 C   0  0  0  0  0  0  0  0  0  0  0  0
   10.6470   -0.4910   22.7940 C   0  0  0  0  0  0  0  0  0  0  0  0
    6.8440   -4.4420   26.2650 C   0  0  0  0  0  0  0  0  0  0  0  0
    6.7580    0.0130   19.9320 C   0  0  0  0  0  0  0  0  0  0  0  0
    7.2410   -0.0320   18.6230 C   0  0  0  0  0  0  0  0  0  0  0  0
    9.0680   -5.1400   26.6360 C   0  0  0  0  0  0  0  0  0  0  0  0
    8.6790   -0.0690   21.3920 C   0  0  0  0  0  0  0  0  0  0  0  0
    5.5970    0.7360   20.1720 C   0  0  0  0  0  0  0  0  0  0  0  0
   12.9360   -0.7770   22.1850 C   0  0  0  0  0  0  0  0  0  0  0  0
    8.6450   -3.4300   24.9420 N   0  0  0  0  0  0  0  0  0  0  0  0
    7.6940   -5.5480   26.6040 O   0  0  0  0  0  0  0  0  0  0  0  0
    9.0510   -2.8660   23.6480 C   0  0  0  0  0  0  0  0  0  0  0  0
   11.0200    0.4820   23.7210 C   0  0  0  0  0  0  0  0  0  0  0  0
    4.9700    1.3790   19.1220 C   0  0  0  0  0  0  0  0  0  0  0  0
   14.1450   -1.6320   21.2730 Cl  0  0  0  0  0  0  0  0  0  0  0  0
  8  5  2  0
  9  1  2  0
 10  2  1  0
 12  2  1  0
 12 11  1  0
 13  4  1  0
 14  3  1  0
 15 14  2  0
 15  1  1  0
 16  7  1  0
 17  6  2  0
 17  3  1  0
 17  2  1  0
 18 14  1  0
 19 11  2  0
 19  5  1  0
 20  7  1  0
 20  4  1  0
 21 16  1  0
 21 13  1  0
 22 20  1  0
 22 10  1  0
 23 12  2  0
 23  8  1  0
 24 18  2  0
 24  9  1  0
 25 19  1  0
M  END
