
     RDKit          3D

 20 21  0  0  0  0  0  0  0  0999 V2000
    9.3290    0.5120   20.9790 O   0  0  0  0  0  0  0  0  0  0  0  0
    8.5910   -0.3350   21.4770 C   0  0  0  0  0  0  0  0  0  0  0  0
    7.3570   -0.6430   21.0110 N   0  0  0  0  0  0  0  0  0  0  0  0
    6.6720   -0.0270   19.9320 C   0  0  0  0  0  0  0  0  0  0  0  0
    5.5050    0.7250   20.1780 C   0  0  0  0  0  0  0  0  0  0  0  0
    4.9170    0.8660   21.5570 C   0  0  0  0  0  0  0  0  0  0  0  0
    4.9050    1.3460   19.0900 C   0  0  0  0  0  0  0  0  0  0  0  0
    5.4640    1.2110   17.8360 C   0  0  0  0  0  0  0  0  0  0  0  0
    6.5650    0.4960   17.5880 N   0  0  0  0  0  0  0  0  0  0  0  0
    7.1480   -0.1120   18.6240 C   0  0  0  0  0  0  0  0  0  0  0  0
    9.0080   -1.1110   22.7160 C   0  0  0  0  0  0  0  0  0  0  0  0
   10.4080   -0.8960   23.0760 N   0  0  0  0  0  0  0  0  0  0  0  0
   11.2110   -2.0690   22.7070 C   0  0  0  0  0  0  0  0  0  0  0  0
   12.6810   -1.8540   23.0470 C   0  0  0  0  0  0  0  0  0  0  0  0
   10.5520   -0.6190   24.5180 C   0  0  0  0  0  0  0  0  0  0  0  0
   12.0200   -0.3960   24.8830 C   0  0  0  0  0  0  0  0  0  0  0  0
   12.8210   -1.5590   24.4740 N   0  0  0  0  0  0  0  0  0  0  0  0
   13.5400   -2.3480   25.3060 C   0  0  0  0  0  0  0  0  0  0  0  0
   14.6330   -2.0020   25.7060 O   0  0  0  0  0  0  0  0  0  0  0  0
   12.9550   -3.6610   25.7120 C   0  0  0  0  0  0  0  0  0  0  0  0
  2  1  2  0
  3  2  1  0
  4  3  1  0
  5  4  2  0
  6  5  1  0
  7  5  1  0
  8  7  2  0
  9  8  1  0
 10  9  2  0
 10  4  1  0
 11  2  1  0
 12 11  1  0
 13 12  1  0
 14 13  1  0
 15 12  1  0
 16 15  1  0
 17 16  1  0
 17 14  1  0
 18 17  1  0
 19 18  2  0
 20 18  1  0
M  END
