
     RDKit          3D

 21 23  0  0  0  0  0  0  0  0999 V2000
    9.2600    0.6340   21.0260 O   0  0  0  0  0  0  0  0  0  0  0  0
    8.6850   -0.4040   21.3460 C   0  0  0  0  0  0  0  0  0  0  0  0
    9.1450   -1.2430   22.5210 C   0  0  0  0  0  0  0  0  0  0  0  0
   10.5290   -0.8120   22.9360 C   0  0  2  0  0  0  0  0  0  0  0  0
   10.7440    0.1560   23.9110 C   0  0  0  0  0  0  0  0  0  0  0  0
   12.0390    0.5890   24.1430 C   0  0  0  0  0  0  0  0  0  0  0  0
   13.0920    0.0360   23.4280 C   0  0  0  0  0  0  0  0  0  0  0  0
   11.5330   -1.3650   22.2370 N   0  0  0  0  0  0  0  0  0  0  0  0
   12.7620   -0.9470   22.5090 C   0  0  2  0  0  0  0  0  0  0  0  0
   14.0320   -1.7940   21.6770 Cl  0  0  0  0  0  0  0  0  0  0  0  0
    7.5870   -0.8640   20.7190 N   0  0  0  0  0  0  0  0  0  0  0  0
    6.8430   -0.2150   19.7190 C   0  0  1  0  0  0  0  0  0  0  0  0
    5.7010    0.5430   20.1150 C   0  0  0  0  0  0  0  0  0  0  0  0
    5.2580    0.6580   21.4570 C   0  0  0  0  0  0  0  0  0  0  0  0
    4.1490    1.3910   21.7680 C   0  0  0  0  0  0  0  0  0  0  0  0
    3.4310    2.0410   20.7770 C   0  0  0  0  0  0  0  0  0  0  0  0
    3.8290    1.9810   19.4750 C   0  0  0  0  0  0  0  0  0  0  0  0
    4.9720    1.2320   19.1070 C   0  0  0  0  0  0  0  0  0  0  0  0
    5.4420    1.1340   17.7760 C   0  0  0  0  0  0  0  0  0  0  0  0
    6.5150    0.4450   17.4130 N   0  0  0  0  0  0  0  0  0  0  0  0
    7.1800   -0.2130   18.3680 C   0  0  0  0  0  0  0  0  0  0  0  0
  2  1  1  0
  3  2  1  0
  4  3  1  6
  5  4  1  0
  6  5  1  0
  7  6  1  0
  8  4  1  0
  9  8  1  0
  9  7  1  0
  9 10  1  1
 11  2  1  0
 12 11  1  1
 13 12  1  0
 14 13  1  0
 15 14  1  0
 16 15  1  0
 17 16  1  0
 18 17  1  0
 18 13  1  0
 19 18  1  0
 20 19  1  0
 21 20  1  0
 21 12  1  0
M  END
$$$$
