
     RDKit          3D

 11 12  0  0  0  0  0  0  0  0999 V2000
   28.3550   53.3090   -7.1580 O   0  0  0  0  0  0  0  0  0  0  0  0
   28.4180   52.1210   -7.2210 C   0  0  0  0  0  0  0  0  0  0  0  0
   28.7890   51.3740   -6.1810 N   0  0  0  0  0  0  0  0  0  0  0  0
   28.8800   50.0760   -6.2050 C   0  0  0  0  0  0  0  0  0  0  0  0
   29.1920   49.4710   -5.2340 O   0  0  0  0  0  0  0  0  0  0  0  0
   28.6160   49.3820   -7.4020 C   0  0  0  0  0  0  0  0  0  0  0  0
   28.6080   48.0740   -7.7790 N   0  0  0  0  0  0  0  0  0  0  0  0
   28.2300   48.0550   -9.0230 C   0  0  0  0  0  0  0  0  0  0  0  0
   27.9850   49.2560   -9.4610 N   0  0  0  0  0  0  0  0  0  0  0  0
   28.2130   50.1230   -8.4630 C   0  0  0  0  0  0  0  0  0  0  0  0
   28.1260   51.4820   -8.3660 N   0  0  0  0  0  0  0  0  0  0  0  0
  2  1  2  0
  3  2  1  0
  4  3  1  0
  5  4  2  0
  6  4  1  0
  7  6  1  0
  8  7  1  0
  9  8  2  0
 10  9  1  0
 10  6  2  0
 11 10  1  0
 11  2  1  0
M  END
