
     RDKit          3D

  8  8  0  0  0  0  0  0  0  0999 V2000
    6.0940   -5.0990   19.7020 N   0  0  0  0  0  0  0  0  0  0  0  0
    6.9530   -4.2160   20.0680 C   0  0  0  0  0  0  0  0  0  0  0  0
    6.5560   -3.3150   21.1440 C   0  0  0  0  0  0  0  0  0  0  0  0
    5.3630   -3.3080   21.7320 N   0  0  0  0  0  0  0  0  0  0  0  0
    5.4300   -2.3000   22.6660 C   0  0  0  0  0  0  0  0  0  0  0  0
    7.3520   -2.3600   21.6670 N   0  0  0  0  0  0  0  0  0  0  0  0
    6.6430   -1.7140   22.6360 C   0  0  0  0  0  0  0  0  0  0  0  0
    8.2460   -3.6460   18.8530 S   0  0  0  0  0  0  0  0  0  0  0  0
  2  1  2  0
  3  2  1  0
  4  3  2  0
  5  4  1  0
  6  3  1  0
  7  5  2  0
  7  6  1  0
  2  8  1  0
M  END
