
     RDKit          3D

 19 20  0  0  0  0  0  0  0  0999 V2000
    6.9530   -4.3340   21.9370 N   0  0  0  0  0  0  0  0  0  0  0  0
    7.8730   -4.7850   19.8560 C   0  0  0  0  0  0  0  0  0  0  0  0
    5.5600   -4.2570   20.1400 O   0  0  0  0  0  0  0  0  0  0  0  0
    6.6560   -4.4270   20.6430 C   0  0  0  0  0  0  0  0  0  0  0  0
    0.5610   -4.8200   24.0790 C   0  0  0  0  0  0  0  0  0  0  0  0
    0.0040   -7.2960   24.9330 C   0  0  0  0  0  0  0  0  0  0  0  0
    1.1510   -7.7370   24.0520 C   0  0  0  0  0  0  0  0  0  0  0  0
    6.0760   -4.4750   23.0240 C   0  0  0  0  0  0  0  0  0  0  0  0
    6.0680   -3.4650   23.9780 C   0  0  0  0  0  0  0  0  0  0  0  0
    5.2050   -3.5520   25.0480 C   0  0  0  0  0  0  0  0  0  0  0  0
    4.3530   -4.6360   25.1720 C   0  0  0  0  0  0  0  0  0  0  0  0
    4.3560   -5.6510   24.2220 C   0  0  0  0  0  0  0  0  0  0  0  0
    5.2160   -5.5640   23.1270 C   0  0  0  0  0  0  0  0  0  0  0  0
    3.4250   -6.8220   24.3440 C   0  0  0  0  0  0  0  0  0  0  0  0
    1.6520   -5.4710   23.2590 C   0  0  0  0  0  0  0  0  0  0  0  0
    2.1580   -6.6760   23.9290 N   0  0  0  0  0  0  0  0  0  0  0  0
    3.8560   -7.8800   24.7990 O   0  0  0  0  0  0  0  0  0  0  0  0
   -0.8800   -5.8800   24.2620 S   0  0  0  0  0  0  0  0  0  0  0  0
    8.3230   -3.4600   18.7200 S   0  0  0  0  0  0  0  0  0  0  0  0
  4  3  1  0
  4  2  1  0
  4  1  1  0
  7  6  1  0
  8  1  1  0
  9  8  1  0
 10  9  1  0
 11 10  1  0
 12 11  1  0
 13 12  1  0
 13  8  1  0
 14 12  1  0
 15  5  1  0
 16 15  1  0
 16 14  1  0
 16  7  1  0
 17 14  1  0
 18  6  1  0
 18  5  1  0
  2 19  1  0
M  END
$$$$
