
     RDKit          3D

 21 22  0  0  0  0  0  0  0  0999 V2000
    7.2490   -0.5710   20.8800 N   0  0  0  0  0  0  0  0  0  0  0  0
    8.0100   -1.0080   26.3540 C   0  0  0  0  0  0  0  0  0  0  0  0
    8.7980    1.0620   21.1500 O   0  0  0  0  0  0  0  0  0  0  0  0
   13.8770   -1.7930   21.3510 Cl  0  0  0  0  0  0  0  0  0  0  0  0
    8.3690   -1.5630   25.0140 C   0  0  0  0  0  0  0  0  0  0  0  0
    6.3150    0.6230   17.5170 N   0  0  0  0  0  0  0  0  0  0  0  0
    8.1260   -0.5610   23.9080 C   0  0  0  0  0  0  0  0  0  0  0  0
    8.9190   -0.8450   22.6230 C   0  0  1  0  0  0  0  0  0  0  0  0
    8.3370   -0.0270   21.4690 C   0  0  0  0  0  0  0  0  0  0  0  0
    6.5140    0.0540   19.8450 C   0  0  0  0  0  0  0  0  0  0  0  0
    6.9480    0.0080   18.5210 C   0  0  0  0  0  0  0  0  0  0  0  0
    5.2090    1.3110   17.8180 C   0  0  0  0  0  0  0  0  0  0  0  0
    4.6970    1.4100   19.0960 C   0  0  0  0  0  0  0  0  0  0  0  0
    5.3550    0.7880   20.1500 C   0  0  0  0  0  0  0  0  0  0  0  0
    4.8790    0.9780   21.5690 C   0  0  0  0  0  0  0  0  0  0  0  0
   10.3880   -0.4860   22.7900 C   0  0  0  0  0  0  0  0  0  0  0  0
   10.7750    0.6680   23.4620 C   0  0  0  0  0  0  0  0  0  0  0  0
   12.0990    1.0770   23.4640 C   0  0  0  0  0  0  0  0  0  0  0  0
   13.0640    0.3290   22.8050 C   0  0  0  0  0  0  0  0  0  0  0  0
   12.6780   -0.8340   22.1730 C   0  0  0  0  0  0  0  0  0  0  0  0
   11.3610   -1.2540   22.1600 C   0  0  0  0  0  0  0  0  0  0  0  0
  5  2  1  0
  7  5  1  0
  8  7  1  1
  9  3  2  0
  9  1  1  0
  9  8  1  0
 10  1  1  0
 11 10  1  0
 11  6  2  0
 12  6  1  0
 13 12  2  0
 14 13  1  0
 14 10  2  0
 15 14  1  0
 16  8  1  0
 17 16  2  0
 18 17  1  0
 19 18  2  0
 20  4  1  0
 20 19  1  0
 21 16  1  0
 21 20  2  0
M  END
