
     RDKit          3D

 27 29  0  0  0  0  0  0  0  0999 V2000
    6.5400    0.9690   16.8750 O   0  0  0  0  0  0  0  0  0  0  0  0
    5.9150    0.7280   17.9110 C   0  0  0  0  0  0  0  0  0  0  0  0
    6.2860   -0.2820   18.8360 C   0  0  0  0  0  0  0  0  0  0  0  0
    4.8550    1.5160   18.2780 N   0  0  0  0  0  0  0  0  0  0  0  0
    4.2050    1.4360   19.5030 C   0  0  0  0  0  0  0  0  0  0  0  0
    4.6400    0.4840   20.4520 C   0  0  0  0  0  0  0  0  0  0  0  0
    4.0540    0.5130   21.7340 C   0  0  0  0  0  0  0  0  0  0  0  0
    4.5770   -0.3700   22.6400 O   0  0  0  0  0  0  0  0  0  0  0  0
    4.0000   -0.4130   23.9440 C   0  0  0  0  0  0  0  0  0  0  0  0
    3.0370    1.4140   22.0250 C   0  0  0  0  0  0  0  0  0  0  0  0
    2.5940    2.2980   21.0570 C   0  0  0  0  0  0  0  0  0  0  0  0
    3.1760    2.3220   19.8030 C   0  0  0  0  0  0  0  0  0  0  0  0
    5.7070   -0.4440   20.0510 C   0  0  0  0  0  0  0  0  0  0  0  0
    6.1220   -1.6250   20.8630 C   0  0  0  0  0  0  0  0  0  0  0  0
    5.4040   -2.6180   20.9560 O   0  0  0  0  0  0  0  0  0  0  0  0
    7.2920   -1.5240   21.4980 N   0  0  0  0  0  0  0  0  0  0  0  0
    7.7220   -2.4870   22.4990 C   0  0  0  0  0  0  0  0  0  0  0  0
    9.2080   -2.4740   22.6900 C   0  0  0  0  0  0  0  0  0  0  0  0
    9.6310   -1.1020   22.7410 O   0  0  0  0  0  0  0  0  0  0  0  0
   10.9760   -0.8300   22.8030 C   0  0  0  0  0  0  0  0  0  0  0  0
   11.3170    0.4150   23.3680 C   0  0  0  0  0  0  0  0  0  0  0  0
   10.2570    1.1770   23.7820 O   0  0  0  0  0  0  0  0  0  0  0  0
   10.4990    2.5500   24.0960 C   0  0  0  0  0  0  0  0  0  0  0  0
   11.9700   -1.6540   22.2950 C   0  0  0  0  0  0  0  0  0  0  0  0
   13.2890   -1.2300   22.3150 C   0  0  0  0  0  0  0  0  0  0  0  0
   13.6250   -0.0090   22.8670 C   0  0  0  0  0  0  0  0  0  0  0  0
   12.6480    0.8120   23.4100 C   0  0  0  0  0  0  0  0  0  0  0  0
  2  1  2  0
  3  2  1  0
  4  2  1  0
  5  4  1  0
  6  5  2  0
  7  6  1  0
  8  7  1  0
  9  8  1  0
 10  7  2  0
 11 10  1  0
 12 11  2  0
 12  5  1  0
 13  6  1  0
 13  3  2  0
 14 13  1  0
 15 14  2  0
 16 14  1  0
 17 16  1  0
 18 17  1  0
 19 18  1  0
 20 19  1  0
 21 20  2  0
 22 21  1  0
 23 22  1  0
 24 20  1  0
 25 24  2  0
 26 25  1  0
 27 26  2  0
 27 21  1  0
M  END
