
     RDKit          3D

 18 19  0  0  0  0  0  0  0  0999 V2000
    6.7960   -2.6770   21.0310 N   0  0  0  0  0  0  0  0  0  0  0  0
    7.1160   -2.6480   18.5950 C   0  0  0  0  0  0  0  0  0  0  0  0
    5.8040   -4.2490   19.7330 O   0  0  0  0  0  0  0  0  0  0  0  0
    6.5140   -3.2550   19.8370 C   0  0  0  0  0  0  0  0  0  0  0  0
   11.8110   -1.8090   22.8830 C   0  0  0  0  0  0  0  0  0  0  0  0
    8.7800   -1.6810   21.9920 C   0  0  0  0  0  0  0  0  0  0  0  0
    7.4960   -1.4150   21.2420 C   0  0  0  0  0  0  0  0  0  0  0  0
    6.4560   -3.2870   22.3170 C   0  0  0  0  0  0  0  0  0  0  0  0
    7.7140   -3.5310   23.1180 C   0  0  0  0  0  0  0  0  0  0  0  0
    9.7330   -2.6050   24.0320 C   0  0  0  0  0  0  0  0  0  0  0  0
   10.8360   -1.5940   23.8410 C   0  0  0  0  0  0  0  0  0  0  0  0
   10.8990   -0.4420   24.6070 C   0  0  0  0  0  0  0  0  0  0  0  0
   11.9180    0.4750   24.4140 C   0  0  0  0  0  0  0  0  0  0  0  0
   12.8930    0.2540   23.4610 C   0  0  0  0  0  0  0  0  0  0  0  0
   12.8210   -0.8910   22.7010 C   0  0  0  0  0  0  0  0  0  0  0  0
    8.5030   -2.3080   23.2880 N   0  0  0  0  0  0  0  0  0  0  0  0
   14.0260   -1.2110   21.4870 Cl  0  0  0  0  0  0  0  0  0  0  0  0
    8.7760   -3.2990   18.2920 S   0  0  0  0  0  0  0  0  0  0  0  0
  4  3  2  0
  4  2  1  0
  4  1  1  0
  7  1  1  0
  7  6  1  0
  8  1  1  0
  9  8  1  0
 11 10  1  0
 11  5  2  0
 12 11  1  0
 13 12  2  0
 14 13  1  0
 15 14  2  0
 15  5  1  0
 16 10  1  0
 16  9  1  0
 16  6  1  0
 17 15  1  0
  2 18  1  0
M  END
