
     RDKit          3D

 17 17  0  0  0  0  0  0  0  0999 V2000
    6.9050   -4.0320   20.0170 C   0  0  0  0  0  0  0  0  0  0  0  0
    7.5510   -2.7710   19.4700 C   0  0  0  0  0  0  0  0  0  0  0  0
    7.8920   -2.6820   18.3030 O   0  0  0  0  0  0  0  0  0  0  0  0
    7.7050   -1.7160   20.3030 N   0  0  0  0  0  0  0  0  0  0  0  0
    7.4060   -0.3920   19.7570 C   0  0  0  0  0  0  0  0  0  0  0  0
    5.9570   -0.2360   19.3390 C   0  0  0  0  0  0  0  0  0  0  0  0
    5.8010    0.8360   18.2920 C   0  0  0  0  0  0  0  0  0  0  0  0
    6.5940    0.9270   17.3500 O   0  0  0  0  0  0  0  0  0  0  0  0
    4.8100    1.6940   18.4860 N   0  0  0  0  0  0  0  0  0  0  0  0
    8.2760   -1.8070   21.6590 C   0  0  2  0  0  0  0  0  0  0  0  0
    8.0820   -0.6080   22.6010 C   0  0  0  0  0  0  0  0  0  0  0  0
    9.7110    0.1270   22.6260 S   0  0  1  0  0  0  0  0  0  0  0  0
    9.9020    0.9590   21.4690 O   0  0  0  0  0  0  0  0  0  0  0  0
    9.9700    0.7070   23.9180 O   0  0  0  0  0  0  0  0  0  0  0  0
   10.5350   -1.2950   22.4800 C   0  0  0  0  0  0  0  0  0  0  0  0
    9.7640   -2.0860   21.4310 C   0  0  0  0  0  0  0  0  0  0  0  0
    7.5840   -5.6330   19.4690 S   0  0  0  0  0  0  0  0  0  0  0  0
  2  1  1  0
  3  2  1  0
  4  2  1  0
  5  4  1  0
  6  5  1  0
  7  6  1  0
  8  7  1  0
  9  7  1  0
 10  4  1  6
 11 10  1  0
 12 11  1  0
 12 13  1  6
 14 12  1  0
 15 12  1  0
 16 10  1  0
 16 15  1  0
  1 17  1  0
M  END
$$$$
