
     RDKit          3D

 16 17  0  0  0  0  0  0  0  0999 V2000
   38.4150   41.3040   -3.1030 O   0  0  0  0  0  0  0  0  0  0  0  0
   37.5790   41.3640   -2.1980 C   0  0  0  0  0  0  0  0  0  0  0  0
   37.6480   40.4720   -1.0250 C   0  0  2  0  0  0  0  0  0  0  0  0
   38.4410   39.3650   -1.1200 O   0  0  0  0  0  0  0  0  0  0  0  0
   38.1900   38.6250    0.0050 C   0  0  0  0  0  0  0  0  0  0  0  0
   37.2980   39.2250    0.7710 C   0  0  0  0  0  0  0  0  0  0  0  0
   36.9390   40.4230    0.1250 C   0  0  0  0  0  0  0  0  0  0  0  0
   37.0650   43.8490   -3.8730 N   0  0  0  0  0  0  0  0  0  0  0  0
   36.1810   43.1700   -3.1600 C   0  0  1  0  0  0  0  0  0  0  0  0
   36.5210   42.2410   -2.2000 N   0  0  0  0  0  0  0  0  0  0  0  0
   34.9040   43.5360   -3.4110 N   0  0  0  0  0  0  0  0  0  0  0  0
   34.9810   44.5060   -4.2920 N   0  0  0  0  0  0  0  0  0  0  0  0
   36.2670   44.6620   -4.5560 N   0  0  0  0  0  0  0  0  0  0  0  0
   36.7640   45.6260   -5.5360 C   0  0  0  0  0  0  0  0  0  0  0  0
   37.6720   46.6380   -4.9080 C   0  0  0  0  0  0  0  0  0  0  0  0
   36.9840   47.3610   -3.8490 C   0  0  0  0  0  0  0  0  0  0  0  0
  2  1  1  0
  3  2  1  6
  4  3  1  0
  5  4  1  0
  6  5  1  0
  7  6  1  0
  7  3  1  0
  9  8  1  0
  9 10  1  1
 10  2  1  0
 11  9  1  0
 12 11  1  0
 13 12  1  0
 13  8  1  0
 14 13  1  0
 15 14  1  0
 16 15  1  0
M  END
