
     RDKit          3D

 19 20  0  0  0  0  0  0  0  0999 V2000
    6.7980   -4.3890   20.9700 C   0  0  0  0  0  0  0  0  0  0  0  0
    8.0990   -3.7250   20.5760 C   0  0  0  0  0  0  0  0  0  0  0  0
    7.6150   -4.5890   23.2650 C   0  0  0  0  0  0  0  0  0  0  0  0
    8.0870   -3.4120   23.8400 C   0  0  0  0  0  0  0  0  0  0  0  0
    9.1160   -3.4600   24.7680 C   0  0  0  0  0  0  0  0  0  0  0  0
    9.6450   -4.6770   25.0960 C   0  0  0  0  0  0  0  0  0  0  0  0
    9.2060   -5.8500   24.5530 C   0  0  0  0  0  0  0  0  0  0  0  0
    8.1750   -5.8090   23.6300 C   0  0  0  0  0  0  0  0  0  0  0  0
    5.1710   -4.7480   22.7920 C   0  0  2  0  0  0  0  0  0  0  0  0
    5.0180   -4.3910   24.2700 C   0  0  0  0  0  0  0  0  0  0  0  0
    4.2580   -5.2240   24.9750 C   0  0  0  0  0  0  0  0  0  0  0  0
    4.7520   -6.2190   22.6280 C   0  0  0  0  0  0  0  0  0  0  0  0
   10.6620   -4.7250   25.9970 F   0  0  0  0  0  0  0  0  0  0  0  0
    6.5410   -4.5530   22.3140 N   0  0  0  0  0  0  0  0  0  0  0  0
    6.0130   -4.7740   20.1110 O   0  0  0  0  0  0  0  0  0  0  0  0
    2.7120   -7.1360   24.0610 O   0  0  0  0  0  0  0  0  0  0  0  0
    4.9760   -7.7400   24.7960 O   0  0  0  0  0  0  0  0  0  0  0  0
    4.0980   -6.7750   24.1880 S   0  0  2  0  0  0  0  0  0  0  0  0
    8.3730   -3.4850   18.7870 S   0  0  0  0  0  0  0  0  0  0  0  0
  2  1  1  0
  4  3  1  0
  5  4  1  0
  6  5  1  0
  7  6  1  0
  8  7  1  0
  8  3  1  0
 10  9  1  0
 11 10  1  0
 12  9  1  0
 13  6  1  0
  9 14  1  1
 14  1  1  0
 14  3  1  0
 15  1  1  0
 18 17  1  1
 18 16  1  0
 18 12  1  0
 18 11  1  0
  2 19  1  0
M  END
$$$$
