
     RDKit          3D

 21 23  0  0  0  0  0  0  0  0999 V2000
    8.9870    0.6670   20.9170 O   0  0  0  0  0  0  0  0  0  0  0  0
    8.3800   -0.3250   21.3190 C   0  0  0  0  0  0  0  0  0  0  0  0
    8.8600   -1.1410   22.5040 C   0  0  0  0  0  0  0  0  0  0  0  0
   10.3200   -0.8810   22.7850 C   0  0  0  0  0  0  0  0  0  0  0  0
   10.5870    0.1260   23.6350 N   0  0  0  0  0  0  0  0  0  0  0  0
   11.8630    0.5360   23.7300 C   0  0  0  0  0  0  0  0  0  0  0  0
   12.9040   -0.0200   23.0100 C   0  0  0  0  0  0  0  0  0  0  0  0
   11.3010   -1.5370   22.0600 C   0  0  0  0  0  0  0  0  0  0  0  0
   12.5940   -1.0750   22.1830 C   0  0  0  0  0  0  0  0  0  0  0  0
   13.8620   -1.8750   21.2970 Cl  0  0  0  0  0  0  0  0  0  0  0  0
    7.2420   -0.7610   20.7580 N   0  0  0  0  0  0  0  0  0  0  0  0
    6.5400   -0.1470   19.7040 C   0  0  0  0  0  0  0  0  0  0  0  0
    5.3850    0.6260   20.0190 C   0  0  0  0  0  0  0  0  0  0  0  0
    4.8880    0.8020   21.3390 C   0  0  0  0  0  0  0  0  0  0  0  0
    3.8220    1.6220   21.5820 C   0  0  0  0  0  0  0  0  0  0  0  0
    3.1950    2.2940   20.5440 C   0  0  0  0  0  0  0  0  0  0  0  0
    3.6370    2.1590   19.2590 C   0  0  0  0  0  0  0  0  0  0  0  0
    4.7420    1.3250   18.9620 C   0  0  0  0  0  0  0  0  0  0  0  0
    5.2910    1.2050   17.6640 C   0  0  0  0  0  0  0  0  0  0  0  0
    6.3670    0.4870   17.3750 N   0  0  0  0  0  0  0  0  0  0  0  0
    6.9650   -0.1650   18.3790 C   0  0  0  0  0  0  0  0  0  0  0  0
  2  1  2  0
  3  2  1  0
  4  3  1  0
  5  4  2  0
  6  5  1  0
  7  6  2  0
  8  4  1  0
  9  8  2  0
  9  7  1  0
 10  9  1  0
 11  2  1  0
 12 11  1  0
 13 12  1  0
 14 13  2  0
 15 14  1  0
 16 15  2  0
 17 16  1  0
 18 17  2  0
 18 13  1  0
 19 18  1  0
 20 19  2  0
 21 20  1  0
 21 12  2  0
M  END
