
     RDKit          3D

 29 30  0  0  0  0  0  0  0  0999 V2000
    7.4370    3.9800   22.8030 C   0  0  0  0  0  0  0  0  0  0  0  0
    6.6850    3.0240   23.4620 C   0  0  0  0  0  0  0  0  0  0  0  0
    5.3060    2.9940   23.3260 C   0  0  0  0  0  0  0  0  0  0  0  0
    4.6700    3.9190   22.5350 C   0  0  0  0  0  0  0  0  0  0  0  0
    5.4060    4.8760   21.8750 C   0  0  0  0  0  0  0  0  0  0  0  0
    6.7850    4.9060   22.0080 C   0  0  0  0  0  0  0  0  0  0  0  0
    8.9330    4.0210   22.9480 C   0  0  0  0  0  0  0  0  0  0  0  0
    9.4610    2.7460   23.3960 O   0  0  0  0  0  0  0  0  0  0  0  0
    9.5000    1.7580   22.4900 C   0  0  0  0  0  0  0  0  0  0  0  0
    9.1160    1.8620   21.3480 O   0  0  0  0  0  0  0  0  0  0  0  0
   10.0350    0.6480   23.0290 N   0  0  0  0  0  0  0  0  0  0  0  0
   10.1080   -0.5880   22.2690 C   0  0  1  0  0  0  0  0  0  0  0  0
   10.8710   -1.6520   23.0540 C   0  0  0  0  0  0  0  0  0  0  0  0
   12.3060   -1.2850   23.4320 C   0  0  1  0  0  0  0  0  0  0  0  0
   12.9380   -2.3740   24.2840 C   0  0  0  0  0  0  0  0  0  0  0  0
   13.1440   -1.0250   22.1910 C   0  0  0  0  0  0  0  0  0  0  0  0
    8.7240   -1.1090   21.8770 C   0  0  0  0  0  0  0  0  0  0  0  0
    7.7870   -1.0400   22.6710 O   0  0  0  0  0  0  0  0  0  0  0  0
    8.6060   -1.6220   20.6490 N   0  0  0  0  0  0  0  0  0  0  0  0
    7.3580   -2.1900   20.1340 C   0  0  2  0  0  0  0  0  0  0  0  0
    7.5730   -3.6550   19.7950 C   0  0  0  0  0  0  0  0  0  0  0  0
    6.3890   -4.2770   19.3520 O   0  0  0  0  0  0  0  0  0  0  0  0
    6.8800   -1.3970   18.9140 C   0  0  0  0  0  0  0  0  0  0  0  0
    6.4930    0.0310   19.2960 C   0  0  2  0  0  0  0  0  0  0  0  0
    5.2550    0.1920   20.1650 C   0  0  0  0  0  0  0  0  0  0  0  0
    4.8320    1.6280   19.8990 C   0  0  0  0  0  0  0  0  0  0  0  0
    5.2770    1.8340   18.5250 N   0  0  0  0  0  0  0  0  0  0  0  0
    6.1830    0.9470   18.1260 C   0  0  0  0  0  0  0  0  0  0  0  0
    6.7010    0.8930   16.9990 O   0  0  0  0  0  0  0  0  0  0  0  0
  2  1  1  0
  3  2  1  0
  4  3  1  0
  5  4  1  0
  6  5  1  0
  6  1  1  0
  7  1  1  0
  8  7  1  0
  9  8  1  0
 10  9  1  0
 11  9  1  0
 12 11  1  0
 12 13  1  1
 14 13  1  0
 14 15  1  6
 16 14  1  0
 17 12  1  0
 18 17  1  0
 19 17  1  0
 20 19  1  0
 20 21  1  6
 22 21  1  0
 23 20  1  0
 24 23  1  6
 25 24  1  0
 26 25  1  0
 27 26  1  0
 28 27  1  0
 28 24  1  0
 29 28  1  0
M  END
$$$$
