
     RDKit          3D

 12 13  0  0  0  0  0  0  0  0999 V2000
   28.5970   47.5740  -10.7090 N   0  0  0  0  0  0  0  0  0  0  0  0
   28.5310   48.4840   -9.7570 C   0  0  0  0  0  0  0  0  0  0  0  0
   28.8800   48.0450   -8.0850 S   0  0  0  0  0  0  0  0  0  0  0  0
   28.3170   49.7510   -9.9740 N   0  0  0  0  0  0  0  0  0  0  0  0
   28.4510   50.4800   -8.7990 C   0  0  0  0  0  0  0  0  0  0  0  0
   28.7650   49.7270   -7.6610 C   0  0  0  0  0  0  0  0  0  0  0  0
   29.0100   50.3370   -6.4390 C   0  0  0  0  0  0  0  0  0  0  0  0
   28.9450   51.7140   -6.3660 C   0  0  0  0  0  0  0  0  0  0  0  0
   28.3530   51.8610   -8.7050 C   0  0  0  0  0  0  0  0  0  0  0  0
   28.5970   52.4600   -7.4820 C   0  0  0  0  0  0  0  0  0  0  0  0
   28.4740   53.8130   -7.3020 O   0  0  0  0  0  0  0  0  0  0  0  0
   28.0790   54.6140   -8.4210 C   0  0  0  0  0  0  0  0  0  0  0  0
  2  1  1  0
  3  2  1  0
  4  2  2  0
  5  4  1  0
  6  3  1  0
  6  5  2  0
  7  6  1  0
  8  7  2  0
  9  5  1  0
 10  9  2  0
 10  8  1  0
 11 10  1  0
 12 11  1  0
M  END
