
     RDKit          3D

 13 13  0  0  0  0  0  0  0  0999 V2000
   29.2940   51.0620   -4.7010 F   0  0  0  0  0  0  0  0  0  0  0  0
   29.6120   51.1180   -5.9860 C   0  0  2  0  0  0  0  0  0  0  0  0
   29.0720   50.0570   -6.5560 F   0  0  0  0  0  0  0  0  0  0  0  0
   30.9120   50.9440   -6.0770 F   0  0  0  0  0  0  0  0  0  0  0  0
   29.1650   52.4160   -6.6200 C   0  0  0  0  0  0  0  0  0  0  0  0
   28.5040   52.3540   -7.7810 N   0  0  0  0  0  0  0  0  0  0  0  0
   28.1160   53.5460   -8.2550 C   0  0  0  0  0  0  0  0  0  0  0  0
   29.4880   53.4960   -5.8970 N   0  0  0  0  0  0  0  0  0  0  0  0
   29.0730   54.6570   -6.4180 C   0  0  0  0  0  0  0  0  0  0  0  0
   28.3590   54.7510   -7.6060 C   0  0  0  0  0  0  0  0  0  0  0  0
   27.7820   56.0480   -8.1020 C   0  0  0  0  0  0  0  0  0  0  0  0
   27.9070   57.0730   -7.4140 O   0  0  0  0  0  0  0  0  0  0  0  0
   27.1190   56.0350   -9.2560 N   0  0  0  0  0  0  0  0  0  0  0  0
  2  1  1  1
  3  2  1  0
  4  2  1  0
  5  2  1  0
  6  5  2  0
  7  6  1  0
  8  5  1  0
  9  8  2  0
 10  7  2  0
 10  9  1  0
 11 10  1  0
 12 11  2  0
 13 11  1  0
M  END
