
     RDKit          3D

 41 45  0  0  0  0  0  0  0  0999 V2000
    6.0900   -3.8230   19.4070 O   0  0  0  0  0  0  0  0  0  0  0  0
    7.3020   -3.2750   19.8280 C   0  0  2  0  0  0  0  0  0  0  0  0
    7.7300   -3.9140   21.1010 C   0  0  0  0  0  0  0  0  0  0  0  0
    6.9230   -3.9070   22.1850 N   0  0  0  0  0  0  0  0  0  0  0  0
    7.5260   -4.5420   23.2580 C   0  0  0  0  0  0  0  0  0  0  0  0
    6.9570   -4.7490   24.5050 C   0  0  0  0  0  0  0  0  0  0  0  0
    7.6820   -5.4390   25.5160 C   0  0  0  0  0  0  0  0  0  0  0  0
    8.9830   -5.8570   25.2290 C   0  0  0  0  0  0  0  0  0  0  0  0
    9.5780   -5.6240   23.9870 C   0  0  0  0  0  0  0  0  0  0  0  0
    8.8270   -4.9870   22.9820 C   0  0  0  0  0  0  0  0  0  0  0  0
    9.2760   -4.6070   21.3950 S   0  0  0  0  0  0  0  0  0  0  0  0
    7.1590   -1.7530   19.9370 C   0  0  2  0  0  0  0  0  0  0  0  0
    6.6710   -1.0310   18.7000 C   0  0  0  0  0  0  0  0  0  0  0  0
    6.2750    0.4060   19.0430 C   0  0  2  0  0  0  0  0  0  0  0  0
    5.0560    0.4760   20.0540 C   0  0  0  0  0  0  0  0  0  0  0  0
    4.2550    1.7110   19.5470 C   0  0  0  0  0  0  0  0  0  0  0  0
    4.5830    1.7780   18.0480 N   0  0  0  0  0  0  0  0  0  0  0  0
    5.7390    1.1580   17.8150 C   0  0  0  0  0  0  0  0  0  0  0  0
    6.2480    1.1430   16.6890 O   0  0  0  0  0  0  0  0  0  0  0  0
    8.4400   -1.1920   20.4420 N   0  0  0  0  0  0  0  0  0  0  0  0
    8.5600   -0.6060   21.6640 C   0  0  0  0  0  0  0  0  0  0  0  0
    9.9770   -0.1940   22.0250 C   0  0  2  0  0  0  0  0  0  0  0  0
   10.6210   -1.2490   22.9280 C   0  0  0  0  0  0  0  0  0  0  0  0
   12.1240   -1.0400   23.1450 C   0  0  2  0  0  0  0  0  0  0  0  0
   12.8810   -1.4210   21.8570 C   0  0  0  0  0  0  0  0  0  0  0  0
   12.5790   -1.9170   24.3420 C   0  0  0  0  0  0  0  0  0  0  0  0
    9.9750    1.1150   22.7040 N   0  0  0  0  0  0  0  0  0  0  0  0
    9.6950    2.2460   22.0720 C   0  0  0  0  0  0  0  0  0  0  0  0
    9.7260    3.4780   22.8060 C   0  0  0  0  0  0  0  0  0  0  0  0
   10.0140    3.7570   24.1260 C   0  0  0  0  0  0  0  0  0  0  0  0
    9.7850    5.1180   24.2690 C   0  0  0  0  0  0  0  0  0  0  0  0
    9.8700    5.9590   25.3550 C   0  0  0  0  0  0  0  0  0  0  0  0
   10.2930    5.3950   26.5270 O   0  0  0  0  0  0  0  0  0  0  0  0
   10.3960    6.2010   27.7440 C   0  0  0  0  0  0  0  0  0  0  0  0
    9.6150    7.3190   25.2240 C   0  0  0  0  0  0  0  0  0  0  0  0
    9.2110    7.8520   23.9690 C   0  0  0  0  0  0  0  0  0  0  0  0
    9.1440    6.9810   22.8560 C   0  0  0  0  0  0  0  0  0  0  0  0
    9.4130    5.6490   23.0420 C   0  0  0  0  0  0  0  0  0  0  0  0
    9.3580    4.6410   22.1500 N   0  0  0  0  0  0  0  0  0  0  0  0
    9.4160    2.2000   20.8300 O   0  0  0  0  0  0  0  0  0  0  0  0
    7.6200   -0.4310   22.4580 O   0  0  0  0  0  0  0  0  0  0  0  0
  2  1  1  1
  3  2  1  0
  4  3  2  0
  5  4  1  0
  6  5  2  0
  7  6  1  0
  8  7  2  0
  9  8  1  0
 10  9  2  0
 10  5  1  0
 11  3  1  0
 11 10  1  0
 12  2  1  0
 12 13  1  6
 14 13  1  6
 15 14  1  0
 16 15  1  0
 17 16  1  0
 18 17  1  0
 18 14  1  0
 19 18  2  0
 20 12  1  0
 21 20  1  0
 22 21  1  0
 22 23  1  1
 24 23  1  0
 24 25  1  6
 26 24  1  0
 27 22  1  0
 28 27  1  0
 29 28  1  0
 30 29  2  0
 31 30  1  0
 32 31  2  0
 33 32  1  0
 34 33  1  0
 35 32  1  0
 36 35  2  0
 37 36  1  0
 38 31  1  0
 38 37  2  0
 39 29  1  0
 39 38  1  0
 40 28  2  0
 41 21  2  0
M  END
$$$$
