
     RDKit          3D

 13 14  0  0  0  0  0  0  0  0999 V2000
    9.2250   -4.2260   27.7850 O   0  0  0  0  0  0  0  0  0  0  0  0
    9.1080   -4.8240   26.5180 C   0  0  2  0  0  0  0  0  0  0  0  0
   10.3500   -4.6730   25.8030 C   0  0  0  0  0  0  0  0  0  0  0  0
   10.5880   -3.2650   25.2470 C   0  0  0  0  0  0  0  0  0  0  0  0
    9.4810   -2.6920   24.5210 N   0  0  0  0  0  0  0  0  0  0  0  0
    9.6380   -1.5040   24.2190 C   0  0  0  0  0  0  0  0  0  0  0  0
   11.0160   -1.1460   23.6460 C   0  0  0  0  0  0  0  0  0  0  0  0
   11.9190   -0.0350   24.1760 C   0  0  0  0  0  0  0  0  0  0  0  0
   13.1330    0.0170   23.4130 C   0  0  0  0  0  0  0  0  0  0  0  0
   13.1050   -1.1150   22.2580 S   0  0  0  0  0  0  0  0  0  0  0  0
   11.6620   -1.7880   22.5410 C   0  0  0  0  0  0  0  0  0  0  0  0
    8.2640   -2.8390   25.3000 C   0  0  0  0  0  0  0  0  0  0  0  0
    8.0090   -4.2750   25.7670 C   0  0  0  0  0  0  0  0  0  0  0  0
  2  1  1  1
  3  2  1  0
  4  3  1  0
  5  4  1  0
  6  5  1  0
  7  6  1  0
  8  7  1  0
  9  8  2  0
 10  9  1  0
 11 10  1  0
 11  7  2  0
 12  5  1  0
 13 12  1  0
 13  2  1  0
M  END
