
     RDKit          3D

 22 23  0  0  0  0  0  0  0  0999 V2000
    5.0960   -7.0600   26.9310 N   0  0  0  0  0  0  0  0  0  0  0  0
    9.9910   -5.3840   26.1460 C   0  0  0  0  0  0  0  0  0  0  0  0
    6.6530   -2.5330   20.8770 O   0  0  0  0  0  0  0  0  0  0  0  0
    7.4010   -5.1510   25.1880 C   0  0  0  0  0  0  0  0  0  0  0  0
    8.2260   -3.7820   21.9490 N   0  0  0  0  0  0  0  0  0  0  0  0
    6.1380   -5.6340   25.0720 C   0  0  2  0  0  0  0  0  0  0  0  0
    8.0200   -4.5670   24.1200 N   0  0  0  0  0  0  0  0  0  0  0  0
    5.5780   -6.4140   26.1160 C   0  0  0  0  0  0  0  0  0  0  0  0
    5.5270   -5.1450   20.2140 N   0  0  0  0  0  0  0  0  0  0  0  0
    5.3160   -5.4300   23.8000 C   0  0  0  0  0  0  0  0  0  0  0  0
    4.3290   -4.2370   23.8480 C   0  0  0  0  0  0  0  0  0  0  0  0
    2.9310   -4.5780   24.3510 C   0  0  0  0  0  0  0  0  0  0  0  0
    2.3410   -5.7290   23.5690 C   0  0  0  0  0  0  0  0  0  0  0  0
    3.2160   -6.9560   23.6990 C   0  0  0  0  0  0  0  0  0  0  0  0
    4.6280   -6.6830   23.1970 C   0  0  0  0  0  0  0  0  0  0  0  0
    6.1950   -4.8890   22.6780 C   0  0  1  0  0  0  0  0  0  0  0  0
    7.4490   -4.4330   22.8930 C   0  0  0  0  0  0  0  0  0  0  0  0
    7.7980   -2.9800   20.9330 C   0  0  2  0  0  0  0  0  0  0  0  0
    8.8810   -2.4800   20.0040 C   0  0  0  0  0  0  0  0  0  0  0  0
    5.7930   -5.0430   21.3240 C   0  0  0  0  0  0  0  0  0  0  0  0
    8.2910   -5.2060   26.6990 S   0  0  0  0  0  0  0  0  0  0  0  0
    8.1470   -3.0440   18.4490 S   0  0  0  0  0  0  0  0  0  0  0  0
  6  4  1  0
  7  4  1  0
  8  1  1  0
  6  8  1  6
 10  6  1  0
 10 11  1  0
 12 11  1  0
 13 12  1  0
 14 13  1  0
 15 14  1  0
 15 10  1  0
 16 10  1  0
 17 16  1  0
 17  7  1  0
 17  5  1  0
 18  3  1  1
 18  5  1  0
 18 19  1  0
 20  9  1  0
 16 20  1  6
 21  4  1  0
 21  2  1  0
 19 22  1  0
M  END
