
     RDKit          3D

 11 12  0  0  0  0  0  0  0  0999 V2000
   28.5780   48.0110   -9.9790 C   0  0  0  0  0  0  0  0  0  0  0  0
   28.8430   47.0920   -8.9980 C   0  0  0  0  0  0  0  0  0  0  0  0
   28.9530   47.7350   -7.8620 N   0  0  0  0  0  0  0  0  0  0  0  0
   28.7230   49.0110   -8.0730 C   0  0  2  0  0  0  0  0  0  0  0  0
   28.4910   49.1630   -9.4040 N   0  0  0  0  0  0  0  0  0  0  0  0
   28.8590   50.0560   -6.9800 C   0  0  2  0  0  0  0  0  0  0  0  0
   28.6150   51.3680   -7.2390 C   0  0  0  0  0  0  0  0  0  0  0  0
   28.8190   52.3860   -6.3030 C   0  0  0  0  0  0  0  0  0  0  0  0
   29.2410   51.9970   -5.1190 N   0  0  0  0  0  0  0  0  0  0  0  0
   29.5240   50.7220   -4.8110 C   0  0  0  0  0  0  0  0  0  0  0  0
   29.3430   49.7100   -5.7340 C   0  0  0  0  0  0  0  0  0  0  0  0
  2  1  1  0
  3  2  1  0
  4  3  1  6
  5  4  1  0
  5  1  1  0
  6  4  1  0
  6  7  1  6
  8  7  1  0
  9  8  1  0
 10  9  1  0
 11  6  1  0
 11 10  1  0
M  END
$$$$
