
     RDKit          3D

 23 25  0  0  0  0  0  0  0  0999 V2000
    6.7810   -2.5550   20.8110 N   0  0  0  0  0  0  0  0  0  0  0  0
    7.0890   -2.4970   18.3910 C   0  0  0  0  0  0  0  0  0  0  0  0
    5.9400   -4.2310   19.5720 O   0  0  0  0  0  0  0  0  0  0  0  0
    6.5390   -3.1690   19.6360 C   0  0  0  0  0  0  0  0  0  0  0  0
    8.5740   -2.3460   22.9950 N   0  0  0  0  0  0  0  0  0  0  0  0
    6.4110   -3.1470   22.0990 C   0  0  0  0  0  0  0  0  0  0  0  0
    7.6700   -3.5080   22.8630 C   0  0  0  0  0  0  0  0  0  0  0  0
    8.8740   -1.7290   21.6860 C   0  0  0  0  0  0  0  0  0  0  0  0
    7.5970   -1.3520   20.9770 C   0  0  0  0  0  0  0  0  0  0  0  0
    9.8300   -2.7310   23.6840 C   0  0  0  0  0  0  0  0  0  0  0  0
    9.5730   -3.4560   25.0040 C   0  0  0  0  0  0  0  0  0  0  0  0
    8.7370   -2.9200   25.9800 C   0  0  0  0  0  0  0  0  0  0  0  0
    8.4240   -3.6470   27.1220 C   0  0  0  0  0  0  0  0  0  0  0  0
    8.9520   -4.9110   27.3070 C   0  0  0  0  0  0  0  0  0  0  0  0
    9.8020   -5.4440   26.3550 C   0  0  0  0  0  0  0  0  0  0  0  0
   10.1140   -4.7210   25.2150 C   0  0  0  0  0  0  0  0  0  0  0  0
   10.8620   -1.6070   23.6790 C   0  0  0  0  0  0  0  0  0  0  0  0
   11.8620   -1.5770   22.7070 C   0  0  0  0  0  0  0  0  0  0  0  0
   12.8050   -0.5570   22.6900 C   0  0  0  0  0  0  0  0  0  0  0  0
   12.7690    0.4360   23.6530 C   0  0  0  0  0  0  0  0  0  0  0  0
   11.7750    0.4190   24.6210 C   0  0  0  0  0  0  0  0  0  0  0  0
   10.8280   -0.5930   24.6300 C   0  0  0  0  0  0  0  0  0  0  0  0
    8.7180   -3.2540   18.2470 S   0  0  0  0  0  0  0  0  0  0  0  0
  4  3  2  0
  4  2  1  0
  4  1  1  0
  6  1  1  0
  7  6  1  0
  7  5  1  0
  8  5  1  0
  9  8  1  0
  9  1  1  0
 10  5  1  0
 10 11  1  0
 12 11  2  0
 13 12  1  0
 14 13  2  0
 15 14  1  0
 16 15  2  0
 16 11  1  0
 17 10  1  0
 18 17  2  0
 19 18  1  0
 20 19  2  0
 21 20  1  0
 22 17  1  0
 22 21  2  0
  2 23  1  0
M  END
