
     RDKit          3D

 22 24  0  0  0  0  0  0  0  0999 V2000
    5.1430    0.9020   21.2870 N   0  0  0  0  0  0  0  0  0  0  0  0
    7.5880   -0.4270   20.8680 N   0  0  0  0  0  0  0  0  0  0  0  0
    3.8840    1.1870   21.7240 C   0  0  0  0  0  0  0  0  0  0  0  0
   12.2270    0.8580   23.8210 C   0  0  0  0  0  0  0  0  0  0  0  0
    9.0490    1.3120   20.9840 O   0  0  0  0  0  0  0  0  0  0  0  0
    9.2130   -0.4220   22.6640 C   0  0  1  0  0  0  0  0  0  0  0  0
    5.6320    0.7350   19.9660 C   0  0  0  0  0  0  0  0  0  0  0  0
    6.8360    0.0400   19.7660 C   0  0  0  0  0  0  0  0  0  0  0  0
    7.3250   -0.0730   18.4680 C   0  0  0  0  0  0  0  0  0  0  0  0
    5.5760    1.1470   17.6260 C   0  0  0  0  0  0  0  0  0  0  0  0
   10.9350    0.4140   23.5610 C   0  0  0  0  0  0  0  0  0  0  0  0
   13.0380   -0.6570   22.1770 C   0  0  0  0  0  0  0  0  0  0  0  0
   14.0890   -1.2350   21.5390 F   0  0  0  0  0  0  0  0  0  0  0  0
    9.4560    0.5260   23.8920 C   0  0  0  0  0  0  0  0  0  0  0  0
   13.2950    0.3320   23.1100 C   0  0  0  0  0  0  0  0  0  0  0  0
   11.7720   -1.1200   21.8910 C   0  0  0  0  0  0  0  0  0  0  0  0
    3.7290    1.2400   23.2160 C   0  0  0  0  0  0  0  0  0  0  0  0
    6.7180    0.4760   17.4110 N   0  0  0  0  0  0  0  0  0  0  0  0
    2.9330    1.3850   20.9640 O   0  0  0  0  0  0  0  0  0  0  0  0
    8.6210    0.2450   21.4230 C   0  0  0  0  0  0  0  0  0  0  0  0
    4.9870    1.2970   18.8670 C   0  0  0  0  0  0  0  0  0  0  0  0
   10.7300   -0.5340   22.6000 C   0  0  0  0  0  0  0  0  0  0  0  0
  3  1  1  0
  7  1  1  0
  8  7  2  0
  8  2  1  0
  9  8  1  0
 11  4  2  0
 13 12  1  0
 14  6  1  0
 14 11  1  0
 15 12  2  0
 15  4  1  0
 16 12  1  0
 17  3  1  0
 18 10  1  0
 18  9  2  0
 19  3  2  0
 20  5  2  0
 20  2  1  0
  6 20  1  6
 21 10  2  0
 21  7  1  0
 22  6  1  0
 22 16  2  0
 22 11  1  0
M  END
