
     RDKit          3D

 29 32  0  0  0  0  0  0  0  0999 V2000
    9.1760    1.3840   21.0650 O   0  0  0  0  0  0  0  0  0  0  0  0
    8.9210    0.3660   21.6870 C   0  0  0  0  0  0  0  0  0  0  0  0
    8.1810   -0.7890   21.0130 C   0  0  0  0  0  0  0  0  0  0  0  0
    7.2520   -0.2970   20.0160 N   0  0  0  0  0  0  0  0  0  0  0  0
    6.1250    0.4470   20.1850 C   0  0  0  0  0  0  0  0  0  0  0  0
    5.4210    0.8800   21.3010 C   0  0  0  0  0  0  0  0  0  0  0  0
    4.3020    1.6730   21.0840 C   0  0  0  0  0  0  0  0  0  0  0  0
    3.9150    2.0300   19.7930 C   0  0  0  0  0  0  0  0  0  0  0  0
    4.6320    1.5960   18.6860 C   0  0  0  0  0  0  0  0  0  0  0  0
    5.7450    0.7860   18.8910 C   0  0  0  0  0  0  0  0  0  0  0  0
    6.6390    0.2270   18.0080 N   0  0  0  0  0  0  0  0  0  0  0  0
    7.5350   -0.4230   18.6950 N   0  0  0  0  0  0  0  0  0  0  0  0
    9.2550    0.2130   23.0010 N   0  0  0  0  0  0  0  0  0  0  0  0
    9.1060   -1.0040   23.7340 C   0  0  0  0  0  0  0  0  0  0  0  0
    8.2010   -1.0810   24.7910 C   0  0  0  0  0  0  0  0  0  0  0  0
    8.1130   -2.2330   25.5530 C   0  0  0  0  0  0  0  0  0  0  0  0
    9.9080   -2.1000   23.4360 C   0  0  0  0  0  0  0  0  0  0  0  0
    9.8100   -3.2570   24.1840 C   0  0  0  0  0  0  0  0  0  0  0  0
    8.9190   -3.3210   25.2480 C   0  0  0  0  0  0  0  0  0  0  0  0
    8.8030   -4.4280   26.0520 O   0  0  0  0  0  0  0  0  0  0  0  0
    9.6110   -5.5650   25.7460 C   0  0  0  0  0  0  0  0  0  0  0  0
    9.8250    1.3600   23.7210 C   0  0  0  0  0  0  0  0  0  0  0  0
   11.2690    1.6270   23.3700 C   0  0  0  0  0  0  0  0  0  0  0  0
   11.6520    2.8470   22.8180 C   0  0  0  0  0  0  0  0  0  0  0  0
   12.9490    3.0160   22.3690 C   0  0  0  0  0  0  0  0  0  0  0  0
   13.4350    4.5680   21.7480 Cl  0  0  0  0  0  0  0  0  0  0  0  0
   13.8770    2.0010   22.4380 C   0  0  0  0  0  0  0  0  0  0  0  0
   13.5060    0.8020   23.0190 C   0  0  0  0  0  0  0  0  0  0  0  0
   12.2150    0.6200   23.4870 C   0  0  0  0  0  0  0  0  0  0  0  0
  2  1  2  0
  3  2  1  0
  4  3  1  0
  5  4  1  0
  6  5  2  0
  7  6  1  0
  8  7  2  0
  9  8  1  0
 10  9  2  0
 10  5  1  0
 11 10  1  0
 12 11  2  0
 12  4  1  0
 13  2  1  0
 14 13  1  0
 15 14  2  0
 16 15  1  0
 17 14  1  0
 18 17  2  0
 19 18  1  0
 19 16  2  0
 20 19  1  0
 21 20  1  0
 22 13  1  0
 23 22  1  0
 24 23  2  0
 25 24  1  0
 26 25  1  0
 27 25  2  0
 28 27  1  0
 29 28  2  0
 29 23  1  0
M  END
