
     RDKit          3D

 13 14  0  0  0  0  0  0  0  0999 V2000
   28.9980   56.3510   -9.9220 N   0  0  0  0  0  0  0  0  0  0  0  0
   27.7430   56.3590   -9.2340 C   0  0  0  0  0  0  0  0  0  0  0  0
   26.7850   55.5540   -9.5980 N   0  0  0  0  0  0  0  0  0  0  0  0
   27.4980   57.3640   -8.0410 C   0  0  0  0  0  0  0  0  0  0  0  0
   27.4260   58.7500   -8.3990 C   0  0  0  0  0  0  0  0  0  0  0  0
   27.2000   59.6740   -7.4420 C   0  0  0  0  0  0  0  0  0  0  0  0
   27.0540   59.2980   -6.0720 C   0  0  0  0  0  0  0  0  0  0  0  0
   26.8510   60.3220   -5.0980 C   0  0  0  0  0  0  0  0  0  0  0  0
   26.7120   59.9910   -3.7560 C   0  0  0  0  0  0  0  0  0  0  0  0
   26.7680   58.6200   -3.3920 C   0  0  0  0  0  0  0  0  0  0  0  0
   26.9800   57.6210   -4.3360 C   0  0  0  0  0  0  0  0  0  0  0  0
   27.1470   57.9530   -5.7030 C   0  0  0  0  0  0  0  0  0  0  0  0
   27.3740   56.9590   -6.6930 C   0  0  0  0  0  0  0  0  0  0  0  0
  2  1  1  0
  3  2  2  0
  4  2  1  0
  5  4  2  0
  6  5  1  0
  7  6  2  0
  8  7  1  0
  9  8  2  0
 10  9  1  0
 11 10  2  0
 12  7  1  0
 12 11  1  0
 13 12  2  0
 13  4  1  0
M  END
