
     RDKit          3D

 13 13  0  0  0  0  0  0  0  0999 V2000
   31.1990   45.7480   -8.0910 O   0  0  0  0  0  0  0  0  0  0  0  0
   32.2950   45.7200   -7.5370 C   0  0  0  0  0  0  0  0  0  0  0  0
   33.4180   46.0610   -8.1170 O   0  0  0  0  0  0  0  0  0  0  0  0
   32.4320   45.2530   -6.0940 C   0  0  1  0  0  0  0  0  0  0  0  0
   31.8140   43.8790   -5.9690 C   0  0  0  0  0  0  0  0  0  0  0  0
   33.7970   45.1410   -5.6730 O   0  0  0  0  0  0  0  0  0  0  0  0
   34.5120   46.2990   -5.4050 C   0  0  0  0  0  0  0  0  0  0  0  0
   35.8570   46.1330   -5.1120 C   0  0  0  0  0  0  0  0  0  0  0  0
   36.3610   44.8870   -5.0760 F   0  0  0  0  0  0  0  0  0  0  0  0
   36.6840   47.1970   -4.8340 C   0  0  0  0  0  0  0  0  0  0  0  0
   36.1490   48.4750   -4.8600 C   0  0  0  0  0  0  0  0  0  0  0  0
   34.8190   48.6710   -5.1600 C   0  0  0  0  0  0  0  0  0  0  0  0
   33.9910   47.5890   -5.4260 C   0  0  0  0  0  0  0  0  0  0  0  0
  2  1  2  0
  3  2  1  0
  4  2  1  0
  4  5  1  6
  6  4  1  0
  7  6  1  0
  8  7  2  0
  9  8  1  0
 10  8  1  0
 11 10  2  0
 12 11  1  0
 13 12  2  0
 13  7  1  0
M  END
