
     RDKit          3D

 37 39  0  0  0  0  0  0  0  0999 V2000
   11.4630    4.7850   22.8950 C   0  0  0  0  0  0  0  0  0  0  0  0
   11.9520    4.5200   23.9400 O   0  0  0  0  0  0  0  0  0  0  0  0
   11.9490    5.9000   22.0620 N   0  0  0  0  0  0  0  0  0  0  0  0
   13.1020    6.7380   22.4880 C   0  0  2  0  0  0  0  0  0  0  0  0
   14.3520    5.8390   22.6030 C   0  0  0  0  0  0  0  0  0  0  0  0
   12.8230    7.3990   23.8590 C   0  0  0  0  0  0  0  0  0  0  0  0
   13.3400    7.8160   21.4030 C   0  0  0  0  0  0  0  0  0  0  0  0
   10.3230    4.0010   22.3800 N   0  0  0  0  0  0  0  0  0  0  0  0
    9.8120    2.9100   23.1680 C   0  0  1  0  0  0  0  0  0  0  0  0
    8.3610    3.2430   23.5750 C   0  0  1  0  0  0  0  0  0  0  0  0
    7.7290    2.0240   24.2880 C   0  0  0  0  0  0  0  0  0  0  0  0
    8.3690    4.4770   24.5120 C   0  0  0  0  0  0  0  0  0  0  0  0
    7.5430    3.5710   22.3060 C   0  0  0  0  0  0  0  0  0  0  0  0
    9.8490    1.6230   22.3600 C   0  0  0  0  0  0  0  0  0  0  0  0
    9.2940    1.5110   21.3300 O   0  0  0  0  0  0  0  0  0  0  0  0
   10.6290    0.4600   22.9140 N   0  0  0  0  0  0  0  0  0  0  0  0
   11.4620    0.4060   24.1950 C   0  0  0  0  0  0  0  0  0  0  0  0
   10.8410   -0.8930   22.3190 C   0  0  1  0  0  0  0  0  0  0  0  0
   11.4680   -1.8910   23.2520 C   0  0  2  0  0  0  0  0  0  0  0  0
   11.7070   -1.0540   24.5400 C   0  0  1  0  0  0  0  0  0  0  0  0
   12.7370   -1.0030   23.3690 C   0  0  2  0  0  0  0  0  0  0  0  0
   13.2590    0.1010   22.3380 C   0  0  0  0  0  0  0  0  0  0  0  0
   13.9560   -1.8840   23.7940 C   0  0  0  0  0  0  0  0  0  0  0  0
    9.3980   -1.4310   22.2010 C   0  0  0  0  0  0  0  0  0  0  0  0
    8.6980   -1.4860   23.1500 O   0  0  0  0  0  0  0  0  0  0  0  0
    8.8710   -1.8920   20.8940 N   0  0  0  0  0  0  0  0  0  0  0  0
    7.5150   -2.4060   20.8280 C   0  0  1  0  0  0  0  0  0  0  0  0
    6.6430   -1.4580   19.9900 C   0  0  0  0  0  0  0  0  0  0  0  0
    6.2750   -0.2070   20.9040 C   0  0  1  0  0  0  0  0  0  0  0  0
    5.3300    0.6730   20.2610 C   0  0  0  0  0  0  0  0  0  0  0  0
    5.5540   -0.6230   22.0830 C   0  0  0  0  0  0  0  0  0  0  0  0
    4.5780    0.6710   21.7330 C   0  0  0  0  0  0  0  0  0  0  0  0
    8.3800   -4.6280   20.9070 O   0  0  0  0  0  0  0  0  0  0  0  0
    7.5460   -3.7810   20.1800 C   0  0  0  0  0  0  0  0  0  0  0  0
    5.4290   -4.3120   19.2870 O   0  0  0  0  0  0  0  0  0  0  0  0
    5.6970   -4.9860   21.4760 N   0  0  0  0  0  0  0  0  0  0  0  0
    6.1340   -4.3660   20.2250 C   0  0  0  0  0  0  0  0  0  0  0  0
  2  1  2  0
  3  1  1  0
  4  3  1  0
  4  5  1  1
  6  4  1  0
  7  4  1  0
  8  1  1  0
  9  8  1  6
 10  9  1  0
 10 11  1  1
 12 10  1  0
 13 10  1  0
 14  9  1  0
 15 14  2  0
 16 14  1  0
 17 16  1  0
 18 16  1  0
 19 18  1  6
 20 19  1  0
 20 17  1  6
 21 20  1  0
 21 19  1  0
 21 22  1  6
 23 21  1  0
 18 24  1  1
 25 24  2  0
 26 24  1  0
 27 26  1  0
 27 28  1  6
 29 28  1  6
 30 29  1  0
 31 29  1  0
 32 30  1  0
 32 31  1  0
 34 33  2  0
 34 27  1  0
 37 35  2  0
 37 36  1  0
 37 34  1  0
M  END
$$$$
