
     RDKit          3D

 23 25  0  0  0  0  0  0  0  0999 V2000
    7.1760   -1.3300   21.5240 N   0  0  0  0  0  0  0  0  0  0  0  0
    6.0370   -1.4750   20.8470 C   0  0  0  0  0  0  0  0  0  0  0  0
    5.3560   -2.4990   20.9230 O   0  0  0  0  0  0  0  0  0  0  0  0
    7.6770   -2.3650   22.4180 C   0  0  0  0  0  0  0  0  0  0  0  0
    9.6570   -1.2430   23.3180 N   0  0  0  0  0  0  0  0  0  0  0  0
    6.3400    1.1490   16.8290 O   0  0  0  0  0  0  0  0  0  0  0  0
    9.1900   -2.3440   22.4930 C   0  0  0  0  0  0  0  0  0  0  0  0
    4.7060    1.6680   18.3000 N   0  0  0  0  0  0  0  0  0  0  0  0
   10.9390   -0.7240   23.2620 C   0  0  0  0  0  0  0  0  0  0  0  0
   11.2920    0.3260   24.1070 C   0  0  0  0  0  0  0  0  0  0  0  0
   12.5570    0.8900   24.0190 C   0  0  0  0  0  0  0  0  0  0  0  0
   13.4750    0.4120   23.1010 C   0  0  0  0  0  0  0  0  0  0  0  0
   13.1370   -0.6450   22.2760 C   0  0  0  0  0  0  0  0  0  0  0  0
   11.8750   -1.2160   22.3500 C   0  0  0  0  0  0  0  0  0  0  0  0
    5.6050   -0.3170   20.0130 C   0  0  0  0  0  0  0  0  0  0  0  0
    6.1680   -0.1380   18.7890 C   0  0  0  0  0  0  0  0  0  0  0  0
    5.7560    0.8910   17.8850 C   0  0  0  0  0  0  0  0  0  0  0  0
    4.0830    1.5500   19.5400 C   0  0  0  0  0  0  0  0  0  0  0  0
    3.0260    2.3910   19.8850 C   0  0  0  0  0  0  0  0  0  0  0  0
    2.4300    2.2640   21.1290 C   0  0  0  0  0  0  0  0  0  0  0  0
    2.8840    1.3240   22.0350 C   0  0  0  0  0  0  0  0  0  0  0  0
    3.9340    0.4810   21.7070 C   0  0  0  0  0  0  0  0  0  0  0  0
    4.5330    0.5710   20.4490 C   0  0  0  0  0  0  0  0  0  0  0  0
  2  1  1  0
  3  2  2  0
  4  1  1  0
  7  5  1  0
  7  4  1  0
  9  5  1  0
 10  9  2  0
 11 10  1  0
 12 11  2  0
 13 12  1  0
 14 13  2  0
 14  9  1  0
 15  2  1  0
 16 15  2  0
 17  8  1  0
 17 16  1  0
 17  6  2  0
 18  8  1  0
 19 18  2  0
 20 19  1  0
 21 20  2  0
 22 21  1  0
 23 22  2  0
 23 18  1  0
 23 15  1  0
M  END
