
     RDKit          3D

 33 37  0  0  0  0  0  0  0  0999 V2000
    7.0830   -4.0060   23.2490 C   0  0  1  0  0  0  0  0  0  0  0  0
    6.9290   -0.1820   18.7620 C   0  0  0  0  0  0  0  0  0  0  0  0
    4.9530    0.9960   18.0290 C   0  0  0  0  0  0  0  0  0  0  0  0
    7.2490   -0.8740   21.0830 N   0  0  0  0  0  0  0  0  0  0  0  0
    6.4240   -0.2060   20.0720 C   0  0  0  0  0  0  0  0  0  0  0  0
   11.7230   -1.3550   22.8980 C   0  0  0  0  0  0  0  0  0  0  0  0
   12.9960   -0.9190   23.2740 C   0  0  0  0  0  0  0  0  0  0  0  0
   13.2410    0.4320   23.5030 C   0  0  0  0  0  0  0  0  0  0  0  0
   12.2000    1.3550   23.3640 C   0  0  0  0  0  0  0  0  0  0  0  0
   11.5280    3.6540   23.2000 C   0  0  0  0  0  0  0  0  0  0  0  0
   12.0780    5.0340   23.6360 C   0  0  1  0  0  0  0  0  0  0  0  0
   10.9120    0.9370   22.9910 C   0  0  0  0  0  0  0  0  0  0  0  0
    6.7610   -2.0650   21.6360 C   0  0  0  0  0  0  0  0  0  0  0  0
    5.9090   -6.1290   23.3490 C   0  0  0  0  0  0  0  0  0  0  0  0
    6.1830   -6.2190   24.7190 C   0  0  0  0  0  0  0  0  0  0  0  0
   10.6770   -0.4280   22.7570 C   0  0  0  0  0  0  0  0  0  0  0  0
    9.2930   -0.9790   22.3440 C   0  0  0  0  0  0  0  0  0  0  0  0
    6.8990   -5.2040   25.3610 C   0  0  0  0  0  0  0  0  0  0  0  0
    7.3340   -4.0940   24.6250 C   0  0  0  0  0  0  0  0  0  0  0  0
    8.8330   -2.1700   22.9210 C   0  0  0  0  0  0  0  0  0  0  0  0
    8.4940   -0.3360   21.4080 C   0  0  0  0  0  0  0  0  0  0  0  0
    6.3540   -5.0220   22.6110 C   0  0  0  0  0  0  0  0  0  0  0  0
    6.0210   -4.9890   21.1180 C   0  0  0  0  0  0  0  0  0  0  0  0
   13.4830    5.3380   23.0790 C   0  0  0  0  0  0  0  0  0  0  0  0
   12.2500    6.1110   22.5680 C   0  0  0  0  0  0  0  0  0  0  0  0
    4.4580    0.9750   19.3400 C   0  0  0  0  0  0  0  0  0  0  0  0
    5.1850    0.3670   20.3760 C   0  0  0  0  0  0  0  0  0  0  0  0
    7.5950   -2.7130   22.5560 C   0  0  1  0  0  0  0  0  0  0  0  0
    6.1950    0.4250   17.7420 N   0  0  0  0  0  0  0  0  0  0  0  0
    5.7620   -4.9730   19.9970 N   0  0  0  0  0  0  0  0  0  0  0  0
    8.9040    0.8650   20.8220 O   0  0  0  0  0  0  0  0  0  0  0  0
   12.5030    2.7090   23.6060 O   0  0  0  0  0  0  0  0  0  0  0  0
   14.3240   -2.0900   23.4730 Cl  0  0  0  0  0  0  0  0  0  0  0  0
  5  4  1  0
  5  2  1  0
  7  6  1  0
  8  7  1  0
  9  8  1  0
 11 10  1  6
 12  9  1  0
 13  4  1  0
 15 14  1  0
 16 12  1  0
 16  6  1  0
 17 16  1  0
 18 15  1  0
 19 18  1  0
  1 19  1  1
 20 17  1  0
 21  4  1  0
 21 17  1  0
 22 14  1  0
 22  1  1  0
 23 22  1  0
 24 11  1  0
 25 24  1  0
 25 11  1  0
 26  3  1  0
 27 26  1  0
 27  5  1  0
 28 13  1  1
 28 20  1  0
 28  1  1  0
 29  3  1  0
 29  2  1  0
 30 23  1  0
 31 21  1  0
 32 10  1  0
 32  9  1  0
 33  7  1  0
M  END
