
     RDKit          3D

 20 22  0  0  0  0  0  0  0  0999 V2000
    9.1050    0.8990   21.2070 O   0  0  0  0  0  0  0  0  0  0  0  0
    8.6360   -0.1890   21.5340 C   0  0  0  0  0  0  0  0  0  0  0  0
    9.1030   -0.9370   22.7670 C   0  0  0  0  0  0  0  0  0  0  0  0
   10.5750   -0.6880   22.9860 C   0  0  0  0  0  0  0  0  0  0  0  0
   11.0090    0.2840   23.8770 C   0  0  0  0  0  0  0  0  0  0  0  0
   12.3510    0.6290   23.9520 C   0  0  0  0  0  0  0  0  0  0  0  0
   13.2810   -0.0020   23.1420 C   0  0  0  0  0  0  0  0  0  0  0  0
   11.5130   -1.3450   22.1980 C   0  0  0  0  0  0  0  0  0  0  0  0
   12.8430   -0.9930   22.2850 C   0  0  0  0  0  0  0  0  0  0  0  0
   13.9980   -1.8370   21.2950 Cl  0  0  0  0  0  0  0  0  0  0  0  0
    7.7080   -0.8420   20.7870 N   0  0  0  0  0  0  0  0  0  0  0  0
    7.1060   -0.3120   19.6780 C   0  0  0  0  0  0  0  0  0  0  0  0
    5.9540    0.4310   19.8140 N   0  0  0  0  0  0  0  0  0  0  0  0
    5.6610    0.8400   18.5170 C   0  0  0  0  0  0  0  0  0  0  0  0
    6.5720    0.3770   17.6710 N   0  0  0  0  0  0  0  0  0  0  0  0
    7.4960   -0.3600   18.4160 N   0  0  0  0  0  0  0  0  0  0  0  0
    5.1700    0.7890   20.8980 C   0  0  0  0  0  0  0  0  0  0  0  0
    4.0790    1.5600   20.7010 C   0  0  0  0  0  0  0  0  0  0  0  0
    3.7440    1.9950   19.3970 C   0  0  0  0  0  0  0  0  0  0  0  0
    4.5180    1.6480   18.3200 C   0  0  0  0  0  0  0  0  0  0  0  0
  2  1  2  0
  3  2  1  0
  4  3  1  0
  5  4  2  0
  6  5  1  0
  7  6  2  0
  8  4  1  0
  9  8  2  0
  9  7  1  0
 10  9  1  0
 11  2  1  0
 12 11  1  0
 13 12  1  0
 14 13  1  0
 15 14  2  0
 16 15  1  0
 16 12  2  0
 17 13  1  0
 18 17  2  0
 19 18  1  0
 20 19  2  0
 20 14  1  0
M  END
