
     RDKit          3D

 17 18  0  0  0  0  0  0  0  0999 V2000
   24.9020  -14.7780   24.8190 C   0  0  0  0  0  0  0  0  0  0  0  0
   24.0280  -15.1140   26.0320 C   0  0  0  0  0  0  0  0  0  0  0  0
   23.5450  -17.4390   25.1620 C   0  0  0  0  0  0  0  0  0  0  0  0
   24.7980  -18.0250   25.1470 C   0  0  0  0  0  0  0  0  0  0  0  0
   25.0700  -19.0580   24.2780 C   0  0  0  0  0  0  0  0  0  0  0  0
   24.1000  -19.5010   23.3950 C   0  0  0  0  0  0  0  0  0  0  0  0
   24.2930  -20.7060   21.2140 C   0  0  0  0  0  0  0  0  0  0  0  0
   24.7820  -20.1300   19.0570 C   0  0  0  0  0  0  0  0  0  0  0  0
   23.9470  -21.1480   18.5930 C   0  0  0  0  0  0  0  0  0  0  0  0
   23.3050  -21.9510   19.5350 C   0  0  0  0  0  0  0  0  0  0  0  0
   22.8280  -18.9410   23.4280 C   0  0  0  0  0  0  0  0  0  0  0  0
   22.5460  -17.8980   24.3090 C   0  0  0  0  0  0  0  0  0  0  0  0
   23.3610  -16.3920   26.1440 N   0  0  0  0  0  0  0  0  0  0  0  0
   24.9400  -19.9330   20.3540 N   0  0  0  0  0  0  0  0  0  0  0  0
   23.5200  -21.7050   20.8100 N   0  0  0  0  0  0  0  0  0  0  0  0
   23.8570  -14.3140   26.8880 O   0  0  0  0  0  0  0  0  0  0  0  0
   24.4820  -20.5810   22.5970 O   0  0  0  0  0  0  0  0  0  0  0  0
  2  1  1  0
  4  3  2  0
  5  4  1  0
  6  5  2  0
  9  8  2  0
 10  9  1  0
 11  6  1  0
 12 11  2  0
 12  3  1  0
 13  3  1  0
 13  2  1  0
 14  8  1  0
 14  7  2  0
 15 10  2  0
 15  7  1  0
 16  2  2  0
 17  7  1  0
 17  6  1  0
M  END
