
     RDKit          3D

 17 18  0  0  0  0  0  0  0  0999 V2000
   10.7910   -0.4930   23.3510 Br  0  0  0  0  0  0  0  0  0  0  0  0
    9.2000   -1.3900   22.8430 C   0  0  1  0  0  0  0  0  0  0  0  0
    9.2380   -2.2680   21.7790 C   0  0  0  0  0  0  0  0  0  0  0  0
    8.1050   -3.0140   21.4800 C   0  0  1  0  0  0  0  0  0  0  0  0
    7.8800   -4.1250   20.4810 C   0  0  0  0  0  0  0  0  0  0  0  0
    8.5320   -5.2480   21.0570 O   0  0  0  0  0  0  0  0  0  0  0  0
    6.3960   -4.3950   20.6790 C   0  0  0  0  0  0  0  0  0  0  0  0
    5.7430   -5.2010   20.0300 O   0  0  0  0  0  0  0  0  0  0  0  0
    5.9430   -3.6500   21.7130 N   0  0  0  0  0  0  0  0  0  0  0  0
    6.9380   -2.8450   22.2220 C   0  0  0  0  0  0  0  0  0  0  0  0
    8.0570   -1.2030   23.5970 C   0  0  0  0  0  0  0  0  0  0  0  0
    6.9080   -1.9390   23.3000 C   0  0  0  0  0  0  0  0  0  0  0  0
    5.7280   -1.7470   24.1890 C   0  0  0  0  0  0  0  0  0  0  0  0
    4.7320   -2.4240   24.1480 O   0  0  0  0  0  0  0  0  0  0  0  0
    5.9160   -0.7440   25.0530 O   0  0  0  0  0  0  0  0  0  0  0  0
    4.8710   -0.5320   26.0330 C   0  0  0  0  0  0  0  0  0  0  0  0
    8.4000   -3.5920   18.7810 S   0  0  0  0  0  0  0  0  0  0  0  0
  2  1  1  1
  3  2  1  0
  4  3  1  1
  5  4  1  0
  5  6  1  1
  7  5  1  0
  8  7  1  0
  9  7  1  0
 10  9  1  0
 10  4  1  0
 11  2  1  0
 12 11  1  0
 12 10  1  0
 13 12  1  0
 14 13  1  0
 15 13  1  0
 16 15  1  0
  5 17  1  0
M  END
$$$$
