
     RDKit          3D

  8  7  0  0  0  0  0  0  0  0999 V2000
    5.8030   -1.1020   18.6330 C   0  0  0  0  0  0  0  0  0  0  0  0
    6.4990    0.2670   18.8260 C   0  0  2  0  0  0  0  0  0  0  0  0
    6.7580    0.8820   17.4860 O   0  0  0  0  0  0  0  0  0  0  0  0
    7.8570    0.0390   19.5060 C   0  0  0  0  0  0  0  0  0  0  0  0
    5.6250    1.1860   19.7700 C   0  0  0  0  0  0  0  0  0  0  0  0
    4.1750    1.5460   19.2560 C   0  0  1  0  0  0  0  0  0  0  0  0
    3.4990    2.4100   20.2780 O   0  0  0  0  0  0  0  0  0  0  0  0
    4.1680    2.3000   17.9100 C   0  0  0  0  0  0  0  0  0  0  0  0
  2  1  1  6
  3  2  1  0
  4  2  1  0
  5  2  1  0
  6  5  1  0
  7  6  1  0
  6  8  1  6
M  END
