
     RDKit          3D

 11 12  0  0  0  0  0  0  0  0999 V2000
   30.8610   47.6940   -4.1750 Cl  0  0  0  0  0  0  0  0  0  0  0  0
   30.1580   49.1090   -4.8020 C   0  0  0  0  0  0  0  0  0  0  0  0
   30.0450   50.1550   -3.9580 C   0  0  0  0  0  0  0  0  0  0  0  0
   29.4690   51.3330   -4.3730 C   0  0  0  0  0  0  0  0  0  0  0  0
   28.9730   51.3790   -5.6530 C   0  0  0  0  0  0  0  0  0  0  0  0
   28.3350   52.4270   -6.4290 O   0  0  0  0  0  0  0  0  0  0  0  0
   28.0690   51.9010   -7.7540 C   0  0  0  0  0  0  0  0  0  0  0  0
   27.5490   52.4270   -8.7170 O   0  0  0  0  0  0  0  0  0  0  0  0
   28.5350   50.5570   -7.7500 N   0  0  0  0  0  0  0  0  0  0  0  0
   29.0950   50.2430   -6.4840 C   0  0  0  0  0  0  0  0  0  0  0  0
   29.7090   49.0850   -6.0820 C   0  0  0  0  0  0  0  0  0  0  0  0
  2  1  1  0
  3  2  2  0
  4  3  1  0
  5  4  2  0
  6  5  1  0
  7  6  1  0
  8  7  2  0
  9  7  1  0
 10  9  1  0
 10  5  1  0
 11 10  2  0
 11  2  1  0
M  END
