
     RDKit          3D

 13 13  0  0  0  0  0  0  0  0999 V2000
   29.5610   52.2410   -6.6960 O   0  0  0  0  0  0  0  0  0  0  0  0
   28.9030   52.5130   -7.6970 C   0  0  0  0  0  0  0  0  0  0  0  0
   28.6480   53.9600   -8.0790 C   0  0  0  0  0  0  0  0  0  0  0  0
   29.5130   54.8970   -7.3500 N   0  0  0  0  0  0  0  0  0  0  0  0
   28.7820   55.6670   -6.3400 C   0  0  0  0  0  0  0  0  0  0  0  0
   28.3590   51.5840   -8.5260 N   0  0  0  0  0  0  0  0  0  0  0  0
   28.5370   50.1880   -8.5130 C   0  0  0  0  0  0  0  0  0  0  0  0
   28.1680   49.5230   -9.6330 N   0  0  0  0  0  0  0  0  0  0  0  0
   28.3290   48.1880   -9.6370 C   0  0  0  0  0  0  0  0  0  0  0  0
   28.8690   47.4790   -8.5770 C   0  0  0  0  0  0  0  0  0  0  0  0
   29.2820   48.1640   -7.4370 C   0  0  0  0  0  0  0  0  0  0  0  0
   29.9570   47.4450   -6.2950 C   0  0  0  0  0  0  0  0  0  0  0  0
   29.0920   49.5410   -7.3950 C   0  0  0  0  0  0  0  0  0  0  0  0
  2  1  2  0
  3  2  1  0
  4  3  1  0
  5  4  1  0
  6  2  1  0
  7  6  1  0
  8  7  2  0
  9  8  1  0
 10  9  2  0
 11 10  1  0
 12 11  1  0
 13 11  2  0
 13  7  1  0
M  END
