
     RDKit          3D

 34 36  0  0  0  0  0  0  0  0999 V2000
   10.3950    5.7340   28.3860 C   0  0  0  0  0  0  0  0  0  0  0  0
   10.3250    4.9700   27.1750 O   0  0  0  0  0  0  0  0  0  0  0  0
    9.9040    5.6080   26.0390 C   0  0  0  0  0  0  0  0  0  0  0  0
    9.5770    6.9550   25.9520 C   0  0  0  0  0  0  0  0  0  0  0  0
    9.1000    7.4870   24.7600 C   0  0  0  0  0  0  0  0  0  0  0  0
    8.9310    6.6870   23.6360 C   0  0  0  0  0  0  0  0  0  0  0  0
    9.2640    5.3410   23.7260 C   0  0  0  0  0  0  0  0  0  0  0  0
    9.2120    4.3500   22.7660 N   0  0  0  0  0  0  0  0  0  0  0  0
    9.6310    3.1630   23.3390 C   0  0  0  0  0  0  0  0  0  0  0  0
    9.9650    3.3860   24.6560 C   0  0  0  0  0  0  0  0  0  0  0  0
    9.7570    4.7800   24.9170 C   0  0  0  0  0  0  0  0  0  0  0  0
    9.6290    1.9360   22.5280 C   0  0  0  0  0  0  0  0  0  0  0  0
    9.2330    1.9540   21.3660 O   0  0  0  0  0  0  0  0  0  0  0  0
   10.0470    0.8200   23.1390 N   0  0  0  0  0  0  0  0  0  0  0  0
   10.0310   -0.4710   22.4660 C   0  0  1  0  0  0  0  0  0  0  0  0
   10.7930   -1.5230   23.2800 C   0  0  0  0  0  0  0  0  0  0  0  0
   12.3130   -1.3950   23.2390 C   0  0  2  0  0  0  0  0  0  0  0  0
   12.8570   -1.8280   21.9080 C   0  0  0  0  0  0  0  0  0  0  0  0
   12.9850   -2.1910   24.3540 C   0  0  0  0  0  0  0  0  0  0  0  0
    8.6140   -0.9420   22.1370 C   0  0  0  0  0  0  0  0  0  0  0  0
    7.7100   -0.8590   22.9720 O   0  0  0  0  0  0  0  0  0  0  0  0
    8.4350   -1.4760   20.9180 N   0  0  0  0  0  0  0  0  0  0  0  0
    7.1870   -2.1290   20.5360 C   0  0  1  0  0  0  0  0  0  0  0  0
    6.5790   -1.4530   19.3030 C   0  0  0  0  0  0  0  0  0  0  0  0
    5.9830   -0.0750   19.6580 C   0  0  2  0  0  0  0  0  0  0  0  0
    4.8270   -0.1080   20.6850 C   0  0  0  0  0  0  0  0  0  0  0  0
    3.8800    0.9790   20.2330 C   0  0  0  0  0  0  0  0  0  0  0  0
    4.1710    1.0990   18.8120 N   0  0  0  0  0  0  0  0  0  0  0  0
    5.3740    0.6400   18.4640 C   0  0  0  0  0  0  0  0  0  0  0  0
    5.9110    0.8010   17.3760 O   0  0  0  0  0  0  0  0  0  0  0  0
    7.4090   -3.6410   20.3540 C   0  0  0  0  0  0  0  0  0  0  0  0
    6.1990   -4.3060   19.9960 O   0  0  0  0  0  0  0  0  0  0  0  0
    7.9430   -4.2620   21.6490 C   0  0  0  0  0  0  0  0  0  0  0  0
    8.1950   -5.6570   21.5430 O   0  0  0  0  0  0  0  0  0  0  0  0
  2  1  1  0
  3  2  1  0
  4  3  2  0
  5  4  1  0
  6  5  2  0
  7  6  1  0
  8  7  1  0
  9  8  1  0
 10  9  2  0
 11 10  1  0
 11  7  2  0
 11  3  1  0
 12  9  1  0
 13 12  2  0
 14 12  1  0
 15 14  1  0
 15 16  1  1
 17 16  1  0
 17 18  1  6
 19 17  1  0
 20 15  1  0
 21 20  2  0
 22 20  1  0
 23 22  1  0
 23 24  1  6
 25 24  1  6
 26 25  1  0
 27 26  1  0
 28 27  1  0
 29 28  1  0
 29 25  1  0
 30 29  2  0
 31 23  1  0
 32 31  2  0
 33 31  1  0
 34 33  1  0
M  END
$$$$
