
     RDKit          3D

 25 27  0  0  0  0  0  0  0  0999 V2000
    6.3460    0.6030   17.2770 N   0  0  0  0  0  0  0  0  0  0  0  0
    4.9660    0.8660   21.3560 C   0  0  0  0  0  0  0  0  0  0  0  0
    8.9310    0.6250   20.8370 O   0  0  0  0  0  0  0  0  0  0  0  0
   13.4190    0.6900   23.6890 Cl  0  0  0  0  0  0  0  0  0  0  0  0
    5.4260    0.7250   19.9290 C   0  0  0  0  0  0  0  0  0  0  0  0
    7.1940   -0.8190   20.5710 N   0  0  0  0  0  0  0  0  0  0  0  0
    6.4380    0.9680   25.0990 O   0  0  0  0  0  0  0  0  0  0  0  0
    4.8050    1.4400   18.9110 C   0  0  0  0  0  0  0  0  0  0  0  0
    9.1880    0.3580   26.5120 N   0  0  0  0  0  0  0  0  0  0  0  0
    5.2900    1.3510   17.6230 C   0  0  0  0  0  0  0  0  0  0  0  0
    6.9370   -0.1020   18.2450 C   0  0  0  0  0  0  0  0  0  0  0  0
    6.5190   -0.0810   19.5770 C   0  0  0  0  0  0  0  0  0  0  0  0
    8.3930   -0.4580   21.0700 C   0  0  0  0  0  0  0  0  0  0  0  0
    9.0460   -1.5090   21.9450 C   0  0  0  0  0  0  0  0  0  0  0  0
    9.7980   -0.8530   23.0750 C   0  0  0  0  0  0  0  0  0  0  0  0
   11.1100   -0.4380   22.8940 C   0  0  0  0  0  0  0  0  0  0  0  0
   11.7560    0.2340   23.9100 C   0  0  0  0  0  0  0  0  0  0  0  0
   11.1360    0.5160   25.1110 C   0  0  0  0  0  0  0  0  0  0  0  0
    9.8270    0.0860   25.3050 C   0  0  0  0  0  0  0  0  0  0  0  0
    7.8310   -0.0240   26.8780 C   0  0  1  0  0  0  0  0  0  0  0  0
    7.6490   -0.1660   28.3960 C   0  0  0  0  0  0  0  0  0  0  0  0
    6.1930    0.2090   28.6800 C   0  0  0  0  0  0  0  0  0  0  0  0
    5.5950    0.6780   27.3600 C   0  0  0  0  0  0  0  0  0  0  0  0
    6.7860    1.0370   26.4830 C   0  0  2  0  0  0  0  0  0  0  0  0
    9.1690   -0.6030   24.2880 C   0  0  0  0  0  0  0  0  0  0  0  0
  5  2  1  0
  8  5  2  0
 10  8  1  0
 10  1  2  0
 11  1  1  0
 12  5  1  0
 12 11  2  0
 12  6  1  0
 13  6  1  0
 13  3  2  0
 14 13  1  0
 15 14  1  0
 16 15  2  0
 17 16  1  0
 17  4  1  0
 18 17  2  0
 19  9  1  0
 19 18  1  0
 20  9  1  1
 21 20  1  0
 22 21  1  0
 23 22  1  0
 24 20  1  0
 24  7  1  6
 24 23  1  0
 25 19  2  0
 25 15  1  0
M  END
