
     RDKit          3D

 16 18  0  0  0  0  0  0  0  0999 V2000
   31.8700   47.5870   -4.8780 C   0  0  2  0  0  0  0  0  0  0  0  0
   32.8630   46.8050   -5.5790 C   0  0  0  0  0  0  0  0  0  0  0  0
   32.4850   46.3710   -6.8860 C   0  0  0  0  0  0  0  0  0  0  0  0
   31.0080   46.1380   -6.8990 C   0  0  0  0  0  0  0  0  0  0  0  0
   30.1760   47.3520   -6.5440 N   0  0  0  0  0  0  0  0  0  0  0  0
   30.3650   47.4930   -5.1170 C   0  0  0  0  0  0  0  0  0  0  0  0
   29.3320   48.0600   -7.4310 C   0  0  0  0  0  0  0  0  0  0  0  0
   28.9850   47.4060   -8.5190 N   0  0  0  0  0  0  0  0  0  0  0  0
   28.3350   47.9610   -9.4470 C   0  0  0  0  0  0  0  0  0  0  0  0
   27.8710   49.1230   -9.3660 N   0  0  0  0  0  0  0  0  0  0  0  0
   28.1610   49.8520   -8.3200 C   0  0  1  0  0  0  0  0  0  0  0  0
   27.8060   51.0710   -8.0080 N   0  0  0  0  0  0  0  0  0  0  0  0
   28.2210   51.3690   -6.7810 C   0  0  0  0  0  0  0  0  0  0  0  0
   28.9110   50.3420   -6.3100 C   0  0  0  0  0  0  0  0  0  0  0  0
   28.8500   49.3540   -7.2780 C   0  0  0  0  0  0  0  0  0  0  0  0
   31.9770   48.8200   -5.2140 F   0  0  0  0  0  0  0  0  0  0  0  0
  2  1  1  0
  3  2  1  0
  4  3  1  0
  5  4  1  0
  6  5  1  0
  6  1  1  0
  7  5  1  0
  8  7  1  0
  9  8  1  0
 10  9  1  0
 11 10  1  1
 12 11  1  0
 13 12  1  0
 14 13  1  0
 15  7  1  0
 15 14  1  0
 15 11  1  0
  1 16  1  6
M  END
$$$$
