
     RDKit          3D

 33 37  0  0  0  0  0  0  0  0999 V2000
    7.2430   -3.9670   23.4770 C   0  0  0  0  0  0  0  0  0  0  0  0
    7.0950   -0.2440   18.9060 C   0  0  0  0  0  0  0  0  0  0  0  0
    5.1390    0.9800   18.2160 C   0  0  0  0  0  0  0  0  0  0  0  0
    7.4490   -0.9060   21.2270 N   0  0  0  0  0  0  0  0  0  0  0  0
    6.6200   -0.2320   20.2250 C   0  0  0  0  0  0  0  0  0  0  0  0
   11.9450   -1.4590   23.0260 C   0  0  0  0  0  0  0  0  0  0  0  0
   13.2350   -1.0380   23.3600 C   0  0  0  0  0  0  0  0  0  0  0  0
   13.5270    0.3150   23.4910 C   0  0  0  0  0  0  0  0  0  0  0  0
   12.5310    1.2680   23.2650 C   0  0  0  0  0  0  0  0  0  0  0  0
   11.9270    3.5980   23.1110 C   0  0  0  0  0  0  0  0  0  0  0  0
   12.5640    4.9500   23.5250 C   0  0  1  0  0  0  0  0  0  0  0  0
   11.2290    0.8680   22.9270 C   0  0  0  0  0  0  0  0  0  0  0  0
    6.9360   -2.0550   21.8290 C   0  0  0  0  0  0  0  0  0  0  0  0
    6.0700   -6.0980   23.5700 C   0  0  0  0  0  0  0  0  0  0  0  0
    6.3200   -6.1700   24.9460 C   0  0  0  0  0  0  0  0  0  0  0  0
   10.9400   -0.5080   22.8130 C   0  0  0  0  0  0  0  0  0  0  0  0
    9.5260   -1.0320   22.4490 C   0  0  0  0  0  0  0  0  0  0  0  0
    7.0240   -5.1460   25.5910 C   0  0  0  0  0  0  0  0  0  0  0  0
    7.4810   -4.0490   24.8570 C   0  0  0  0  0  0  0  0  0  0  0  0
    9.0390   -2.1860   23.0730 C   0  0  0  0  0  0  0  0  0  0  0  0
    8.7120   -0.3910   21.5190 C   0  0  0  0  0  0  0  0  0  0  0  0
    6.5220   -4.9950   22.8340 C   0  0  0  0  0  0  0  0  0  0  0  0
    6.2150   -4.9730   21.3330 C   0  0  0  0  0  0  0  0  0  0  0  0
   14.0850    5.0440   23.2820 C   0  0  0  0  0  0  0  0  0  0  0  0
   13.0910    5.8310   22.3990 C   0  0  0  0  0  0  0  0  0  0  0  0
    4.6770    0.9900   19.5380 C   0  0  0  0  0  0  0  0  0  0  0  0
    5.4110    0.3750   20.5570 C   0  0  0  0  0  0  0  0  0  0  0  0
    7.7700   -2.6980   22.7520 C   0  0  1  0  0  0  0  0  0  0  0  0
    6.3520    0.3660   17.8940 N   0  0  0  0  0  0  0  0  0  0  0  0
    5.9820   -4.9690   20.2130 N   0  0  0  0  0  0  0  0  0  0  0  0
    9.1340    0.7730   20.8780 O   0  0  0  0  0  0  0  0  0  0  0  0
   12.9010    2.6200   23.4050 O   0  0  0  0  0  0  0  0  0  0  0  0
   14.5420   -2.2060   23.6590 Cl  0  0  0  0  0  0  0  0  0  0  0  0
  5  4  1  0
  5  2  1  0
  7  6  1  0
  8  7  1  0
  9  8  1  0
 11 10  1  6
 12  9  1  0
 13  4  1  0
 15 14  1  0
 16 12  1  0
 16  6  1  0
 17 16  1  0
 18 15  1  0
 19 18  1  0
 19  1  1  0
 20 17  1  0
 21  4  1  0
 21 17  1  0
 22 14  1  0
 22  1  1  0
 23 22  1  0
 24 11  1  0
 25 24  1  0
 25 11  1  0
 26  3  1  0
 27 26  1  0
 27  5  1  0
 28 20  1  0
 28 13  1  0
 28  1  1  1
 29  3  1  0
 29  2  1  0
 30 23  1  0
 31 21  1  0
 32 10  1  0
 32  9  1  0
 33  7  1  0
M  END
