
     RDKit          3D

 14 15  0  0  0  0  0  0  0  0999 V2000
   14.5110  -25.9520    4.2890 N   0  0  0  0  0  0  0  0  0  0  0  0
   15.9340  -25.6310    7.0170 C   0  0  0  0  0  0  0  0  0  0  0  0
   15.1310  -27.9120    7.7960 O   0  0  0  0  0  0  0  0  0  0  0  0
   16.0750  -27.6070    5.4180 C   0  0  0  0  0  0  0  0  0  0  0  0
   14.8010  -27.2100    4.7270 C   0  0  0  0  0  0  0  0  0  0  0  0
   13.2190  -26.0490    3.7340 C   0  0  0  0  0  0  0  0  0  0  0  0
   12.3910  -25.0410    3.1910 C   0  0  0  0  0  0  0  0  0  0  0  0
   11.1260  -25.4090    2.7870 C   0  0  0  0  0  0  0  0  0  0  0  0
   10.6680  -26.7470    2.8930 C   0  0  0  0  0  0  0  0  0  0  0  0
   11.4580  -27.7460    3.4120 C   0  0  0  0  0  0  0  0  0  0  0  0
   12.7460  -27.3850    3.8390 C   0  0  0  0  0  0  0  0  0  0  0  0
   13.7610  -28.1240    4.4650 N   0  0  0  0  0  0  0  0  0  0  0  0
   17.5300  -27.4990    7.4950 O   0  0  0  0  0  0  0  0  0  0  0  0
   16.1810  -27.2690    7.1020 S   0  0  1  0  0  0  0  0  0  0  0  0
  5  4  1  0
  5  1  2  0
  6  1  1  0
  7  6  2  0
  8  7  1  0
  9  8  2  0
 10  9  1  0
 11 10  2  0
 11  6  1  0
 12 11  1  0
 12  5  1  0
 14  4  1  0
 14  3  2  0
 14  2  1  6
 14 13  2  0
M  END
