
     RDKit          3D

 12 11  0  0  0  0  0  0  0  0999 V2000
    0.5560    5.3430   -8.1040 N   0  0  0  0  0  0  0  0  0  0  0  0
   -0.0790    5.1610   -6.7940 C   0  0  2  0  0  0  0  0  0  0  0  0
    0.9130    4.9610   -5.6830 C   0  0  1  0  0  0  0  0  0  0  0  0
    1.6980    6.1290   -5.5860 O   0  0  0  0  0  0  0  0  0  0  0  0
   -1.0870    3.9940   -6.8750 C   0  0  0  0  0  0  0  0  0  0  0  0
   -2.1700    4.2780   -7.9550 C   0  0  0  0  0  0  0  0  0  0  0  0
   -3.3920    5.0470   -7.3550 C   0  0  0  0  0  0  0  0  0  0  0  0
   -3.2590    6.4840   -7.6220 N   0  0  0  0  0  0  0  0  0  0  0  0
   -4.4040    7.3930   -7.4020 C   0  0  0  0  0  0  0  0  0  0  0  0
   -5.6790    6.8610   -6.9190 N   0  0  0  0  0  0  0  0  0  0  0  0
   -4.2840    8.6210   -7.6300 N   0  0  0  0  0  0  0  0  0  0  0  0
    0.2060    4.8190   -4.4680 O   0  0  0  0  0  0  0  0  0  0  0  0
  2  1  1  6
  3  2  1  0
  3  4  1  1
  5  2  1  0
  6  5  1  0
  7  6  1  0
  8  7  1  0
  9  8  1  0
 10  9  1  0
 11  9  1  0
 12  3  1  0
M  END
$$$$
