
     RDKit          3D

 13 14  0  0  0  0  0  0  0  0999 V2000
   10.1570   25.2110    0.3270 N   0  0  0  0  0  0  0  0  0  0  0  0
   10.3310   23.8570   -0.2040 C   0  0  0  0  0  0  0  0  0  0  0  0
    8.8790   25.8130   -0.0700 C   0  0  0  0  0  0  0  0  0  0  0  0
    6.1940   23.7140    1.3910 N   0  0  0  0  0  0  0  0  0  0  0  0
    7.7320   24.8900    0.2590 C   0  0  2  0  0  0  0  0  0  0  0  0
    7.1690   24.6720    1.4820 C   0  0  0  0  0  0  0  0  0  0  0  0
    6.1040   23.2930    0.0880 C   0  0  0  0  0  0  0  0  0  0  0  0
    5.2970   22.3250   -0.4970 C   0  0  0  0  0  0  0  0  0  0  0  0
    5.4440   22.0640   -1.8490 C   0  0  0  0  0  0  0  0  0  0  0  0
    6.3790   22.7820   -2.5650 C   0  0  0  0  0  0  0  0  0  0  0  0
    7.1900   23.7500   -2.0170 C   0  0  0  0  0  0  0  0  0  0  0  0
    7.0540   24.0150   -0.6570 C   0  0  0  0  0  0  0  0  0  0  0  0
    6.5010   22.5350   -3.8960 F   0  0  0  0  0  0  0  0  0  0  0  0
  2  1  1  0
  3  1  1  0
  5  3  1  1
  6  5  1  0
  6  4  1  0
  7  4  1  0
  8  7  1  0
  9  8  1  0
 10  9  1  0
 11 10  1  0
 12 11  1  0
 12  7  1  0
 12  5  1  0
 13 10  1  0
M  END
$$$$
