
     RDKit          3D

 21 22  0  0  0  0  0  0  0  0999 V2000
    7.4470   -2.4740   23.7420 N   0  0  0  0  0  0  0  0  0  0  0  0
    6.0360   -5.1740   29.1160 C   0  0  0  0  0  0  0  0  0  0  0  0
    8.6030   -1.0370   25.3970 O   0  0  0  0  0  0  0  0  0  0  0  0
    7.0510   -4.7970   28.0650 C   0  0  0  0  0  0  0  0  0  0  0  0
    7.1840   -3.3640   21.0940 N   0  0  0  0  0  0  0  0  0  0  0  0
    6.1690   -1.4320   25.5780 O   0  0  0  0  0  0  0  0  0  0  0  0
    8.1980   -5.5490   27.8800 C   0  0  0  0  0  0  0  0  0  0  0  0
    5.7720   -4.3110   19.6010 O   0  0  0  0  0  0  0  0  0  0  0  0
    9.1320   -5.2070   26.9170 C   0  0  0  0  0  0  0  0  0  0  0  0
    8.9480   -4.0960   26.0990 C   0  0  0  0  0  0  0  0  0  0  0  0
   10.0010   -3.7850   25.0700 C   0  0  0  0  0  0  0  0  0  0  0  0
    7.7890   -3.3320   26.2930 C   0  0  0  0  0  0  0  0  0  0  0  0
    6.8540   -3.6880   27.2550 C   0  0  0  0  0  0  0  0  0  0  0  0
    7.8660   -1.5830   22.6490 C   0  0  0  0  0  0  0  0  0  0  0  0
    8.2530   -2.4270   21.4610 C   0  0  0  0  0  0  0  0  0  0  0  0
    6.7260   -4.1840   22.2160 C   0  0  0  0  0  0  0  0  0  0  0  0
    6.2950   -3.3000   23.3540 C   0  0  0  0  0  0  0  0  0  0  0  0
    6.6630   -3.5090   19.8540 C   0  0  0  0  0  0  0  0  0  0  0  0
    7.2410   -2.6640   18.7500 C   0  0  0  0  0  0  0  0  0  0  0  0
    7.4820   -1.9160   25.2810 S   0  0  0  0  0  0  0  0  0  0  0  0
    8.8470   -3.3370   18.2410 S   0  0  0  0  0  0  0  0  0  0  0  0
  4  2  1  0
  7  4  2  0
  9  7  1  0
 10  9  2  0
 11 10  1  0
 12 10  1  0
 13 12  2  0
 13  4  1  0
 14  1  1  0
 15  5  1  0
 15 14  1  0
 16  5  1  0
 17 16  1  0
 17  1  1  0
 18  8  2  0
 18  5  1  0
 19 18  1  0
 20 12  1  0
 20  6  2  0
 20  3  2  0
 20  1  1  0
 19 21  1  0
M  END
