
     RDKit          3D

 15 16  0  0  0  0  0  0  0  0999 V2000
    9.9640    1.4870   21.3610 N   0  0  0  0  0  0  0  0  0  0  0  0
    9.8230    0.5220   21.9710 C   0  0  0  0  0  0  0  0  0  0  0  0
    7.3580   -5.8480   25.4340 O   0  0  0  0  0  0  0  0  0  0  0  0
    9.6530   -0.6280   22.7620 C   0  0  0  0  0  0  0  0  0  0  0  0
   10.2680   -1.7730   22.3410 N   0  0  0  0  0  0  0  0  0  0  0  0
    8.9480   -0.5260   23.9490 C   0  0  0  0  0  0  0  0  0  0  0  0
    9.5920   -4.0230   25.2600 N   0  0  0  0  0  0  0  0  0  0  0  0
    8.8750   -1.6340   24.7860 C   0  0  0  0  0  0  0  0  0  0  0  0
    9.5130   -2.8410   24.4320 C   0  0  0  0  0  0  0  0  0  0  0  0
   10.1870   -2.8320   23.1650 C   0  0  0  0  0  0  0  0  0  0  0  0
    9.9520   -5.3430   24.6720 C   0  0  0  0  0  0  0  0  0  0  0  0
    8.9650   -5.8500   23.6150 C   0  0  0  0  0  0  0  0  0  0  0  0
    7.4990   -5.6320   24.0340 C   0  0  0  0  0  0  0  0  0  0  0  0
    7.3470   -4.7180   26.2720 C   0  0  0  0  0  0  0  0  0  0  0  0
    8.7630   -4.1270   26.4940 C   0  0  0  0  0  0  0  0  0  0  0  0
  2  1  3  0
  4  2  1  0
  5  4  2  0
  6  4  1  0
  8  6  2  0
  9  8  1  0
  9  7  1  0
 10  9  2  0
 10  5  1  0
 11  7  1  0
 12 11  1  0
 13 12  1  0
 13  3  1  0
 14  3  1  0
 15 14  1  0
 15  7  1  0
M  END
