
     RDKit          3D

  8  8  0  0  0  0  0  0  0  0999 V2000
   -1.3720    3.9500  -16.3550 C   0  0  0  0  0  0  0  0  0  0  0  0
   -1.0020    3.4810  -17.6280 C   0  0  0  0  0  0  0  0  0  0  0  0
   -1.0530    2.0310  -18.1150 C   0  0  0  0  0  0  0  0  0  0  0  0
   -0.5950    4.5170  -18.3910 O   0  0  0  0  0  0  0  0  0  0  0  0
   -0.7210    5.7160  -17.5590 N   0  0  0  0  0  0  0  0  0  0  0  0
   -1.2250    5.3630  -16.3270 C   0  0  2  0  0  0  0  0  0  0  0  0
   -1.4290    6.2850  -15.1220 C   0  0  0  0  0  0  0  0  0  0  0  0
   -0.8860    7.3730  -15.0340 O   0  0  0  0  0  0  0  0  0  0  0  0
  2  1  1  0
  3  2  1  0
  4  2  1  0
  5  4  1  0
  6  1  1  0
  6  5  1  0
  6  7  1  1
  8  7  1  0
M  END
