
     RDKit          3D

 18 19  0  0  0  0  0  0  0  0999 V2000
    5.6360   -3.7090   23.7130 N   0  0  0  0  0  0  0  0  0  0  0  0
    1.4000   -2.4020   28.2790 C   0  0  0  0  0  0  0  0  0  0  0  0
    2.8210   -2.2780   28.2830 O   0  0  0  0  0  0  0  0  0  0  0  0
    3.5030   -2.6430   27.1520 C   0  0  0  0  0  0  0  0  0  0  0  0
    6.7840   -4.3140   21.2430 N   0  0  0  0  0  0  0  0  0  0  0  0
    5.6790   -5.0050   19.4030 O   0  0  0  0  0  0  0  0  0  0  0  0
    2.9970   -3.5960   26.2780 C   0  0  0  0  0  0  0  0  0  0  0  0
    3.7100   -3.9410   25.1460 C   0  0  0  0  0  0  0  0  0  0  0  0
    4.9460   -3.3590   24.8620 C   0  0  0  0  0  0  0  0  0  0  0  0
    5.4360   -2.3970   25.7490 C   0  0  0  0  0  0  0  0  0  0  0  0
    4.7270   -2.0450   26.8840 C   0  0  0  0  0  0  0  0  0  0  0  0
    5.3580   -5.0080   23.0730 C   0  0  0  0  0  0  0  0  0  0  0  0
    6.3950   -5.4480   22.0650 C   0  0  0  0  0  0  0  0  0  0  0  0
    7.5010   -3.3500   22.0650 C   0  0  0  0  0  0  0  0  0  0  0  0
    6.5560   -2.7440   23.0780 C   0  0  0  0  0  0  0  0  0  0  0  0
    6.4300   -4.2020   19.9420 C   0  0  0  0  0  0  0  0  0  0  0  0
    6.9840   -3.0530   19.1370 C   0  0  0  0  0  0  0  0  0  0  0  0
    8.6100   -3.4120   18.4080 S   0  0  0  0  0  0  0  0  0  0  0  0
  3  2  1  0
  4  3  1  0
  7  4  2  0
  8  7  1  0
  9  8  2  0
  9  1  1  0
 10  9  1  0
 11 10  2  0
 11  4  1  0
 12  1  1  0
 13 12  1  0
 13  5  1  0
 14  5  1  0
 15 14  1  0
 15  1  1  0
 16  6  2  0
 16  5  1  0
 17 16  1  0
 17 18  1  0
M  END
