
     RDKit          3D

 21 23  0  0  0  0  0  0  0  0999 V2000
    6.8830   -2.1990   20.8050 N   0  0  0  0  0  0  0  0  0  0  0  0
    8.3470   -3.0540   19.1450 C   0  0  0  0  0  0  0  0  0  0  0  0
    5.9860   -3.4110   19.1070 O   0  0  0  0  0  0  0  0  0  0  0  0
    6.9540   -2.9050   19.6640 C   0  0  0  0  0  0  0  0  0  0  0  0
    8.8000   -2.1290   22.9550 N   0  0  0  0  0  0  0  0  0  0  0  0
    7.8360   -1.0920   20.9380 C   0  0  0  0  0  0  0  0  0  0  0  0
    9.1010   -1.4830   21.6750 C   0  0  0  0  0  0  0  0  0  0  0  0
   10.0330   -2.4690   23.6750 C   0  0  0  0  0  0  0  0  0  0  0  0
   11.1160   -1.4370   23.4770 C   0  0  0  0  0  0  0  0  0  0  0  0
   12.1370   -1.6470   22.5850 C   0  0  0  0  0  0  0  0  0  0  0  0
   13.1390   -0.6870   22.3670 C   0  0  0  0  0  0  0  0  0  0  0  0
   13.1010    0.4970   23.0270 C   0  0  0  0  0  0  0  0  0  0  0  0
   12.0580    0.7800   23.9400 C   0  0  0  0  0  0  0  0  0  0  0  0
   11.9970    2.0120   24.6280 C   0  0  0  0  0  0  0  0  0  0  0  0
   10.9860    2.2770   25.4920 C   0  0  0  0  0  0  0  0  0  0  0  0
    9.9940    1.3190   25.7440 C   0  0  0  0  0  0  0  0  0  0  0  0
   10.0190    0.1210   25.0980 C   0  0  0  0  0  0  0  0  0  0  0  0
   11.0470   -0.1960   24.1710 C   0  0  0  0  0  0  0  0  0  0  0  0
    7.9810   -3.3150   22.7180 C   0  0  0  0  0  0  0  0  0  0  0  0
    6.6750   -2.9450   22.0480 C   0  0  0  0  0  0  0  0  0  0  0  0
    9.0460   -3.2800   17.5080 S   0  0  0  0  0  0  0  0  0  0  0  0
  4  3  2  0
  4  2  1  0
  4  1  1  0
  6  1  1  0
  7  6  1  0
  7  5  1  0
  8  5  1  0
  9  8  1  0
 10  9  2  0
 11 10  1  0
 12 11  2  0
 13 12  1  0
 14 13  2  0
 15 14  1  0
 16 15  2  0
 17 16  1  0
 18 17  2  0
 18 13  1  0
 18  9  1  0
 19  5  1  0
 20  1  1  0
 20 19  1  0
  2 21  1  0
M  END
