
     RDKit          3D

 25 28  0  0  0  0  0  0  0  0999 V2000
    7.8700   -0.3250   21.1880 N   0  0  0  0  0  0  0  0  0  0  0  0
    7.4950    0.8520   24.3170 C   0  0  0  0  0  0  0  0  0  0  0  0
   11.1560    1.7660   24.4680 O   0  0  0  0  0  0  0  0  0  0  0  0
   13.8280   -1.8280   20.6980 Cl  0  0  0  0  0  0  0  0  0  0  0  0
    9.0040    0.6330   24.2900 C   0  0  2  0  0  0  0  0  0  0  0  0
    6.6790    0.3930   17.7550 N   0  0  0  0  0  0  0  0  0  0  0  0
    9.1420    1.5540   21.2740 O   0  0  0  0  0  0  0  0  0  0  0  0
    9.7350    1.9530   24.4030 C   0  0  0  0  0  0  0  0  0  0  0  0
   11.7220    0.8780   23.5840 C   0  0  0  0  0  0  0  0  0  0  0  0
   13.0950    0.9630   23.4410 C   0  0  0  0  0  0  0  0  0  0  0  0
   13.7490    0.1080   22.5740 C   0  0  0  0  0  0  0  0  0  0  0  0
   13.0200   -0.8230   21.8700 C   0  0  1  0  0  0  0  0  0  0  0  0
   11.6510   -0.9300   22.0140 C   0  0  0  0  0  0  0  0  0  0  0  0
   10.9730   -0.0600   22.8720 C   0  0  0  0  0  0  0  0  0  0  0  0
    9.4640   -0.0930   23.0020 C   0  0  2  0  0  0  0  0  0  0  0  0
    8.8120    0.4660   21.7390 C   0  0  0  0  0  0  0  0  0  0  0  0
    7.0110   -0.0130   20.1210 C   0  0  2  0  0  0  0  0  0  0  0  0
    7.3940   -0.0810   18.7820 C   0  0  0  0  0  0  0  0  0  0  0  0
    5.5150    0.9710   18.0320 C   0  0  0  0  0  0  0  0  0  0  0  0
    4.9850    1.1110   19.3370 C   0  0  0  0  0  0  0  0  0  0  0  0
    3.7660    1.7780   19.6130 C   0  0  0  0  0  0  0  0  0  0  0  0
    3.3080    1.8860   20.8950 C   0  0  0  0  0  0  0  0  0  0  0  0
    4.0300    1.3470   21.9530 C   0  0  0  0  0  0  0  0  0  0  0  0
    5.2200    0.7130   21.7300 C   0  0  0  0  0  0  0  0  0  0  0  0
    5.7440    0.5830   20.4180 C   0  0  0  0  0  0  0  0  0  0  0  0
  5  2  1  6
  8  5  1  0
  8  3  1  0
  9  3  1  0
 10  9  1  0
 11 10  1  0
 12  4  1  6
 12 11  1  0
 13 12  1  0
 14 13  1  0
 14  9  1  0
 15  5  1  0
 15 14  1  0
 16  7  1  0
 16  1  1  0
 15 16  1  6
 17  1  1  1
 18 17  1  0
 18  6  1  0
 19  6  1  0
 20 19  1  0
 21 20  1  0
 22 21  1  0
 23 22  1  0
 24 23  1  0
 25 24  1  0
 25 20  1  0
 25 17  1  0
M  END
$$$$
