
     RDKit          3D

 22 23  0  0  0  0  0  0  0  0999 V2000
    7.5500   -0.4890   20.8960 N   0  0  0  0  0  0  0  0  0  0  0  0
    8.7630   -1.7570   23.3390 C   0  0  0  0  0  0  0  0  0  0  0  0
    9.0540    1.2080   20.9520 O   0  0  0  0  0  0  0  0  0  0  0  0
   13.9100   -1.5730   21.0540 Cl  0  0  0  0  0  0  0  0  0  0  0  0
    9.1320   -0.3680   22.7800 C   0  0  2  0  0  0  0  0  0  0  0  0
    6.6020    0.4320   17.4570 N   0  0  0  0  0  0  0  0  0  0  0  0
    3.0060    1.5910   21.0790 O   0  0  0  0  0  0  0  0  0  0  0  0
    8.6020    0.1800   21.4450 C   0  0  0  0  0  0  0  0  0  0  0  0
    5.1070    0.7630   21.3680 N   0  0  0  0  0  0  0  0  0  0  0  0
    6.7850   -0.0250   19.8040 C   0  0  0  0  0  0  0  0  0  0  0  0
    7.2450   -0.1110   18.4940 C   0  0  0  0  0  0  0  0  0  0  0  0
    5.4510    1.0710   17.7050 C   0  0  0  0  0  0  0  0  0  0  0  0
    4.8940    1.2060   18.9610 C   0  0  0  0  0  0  0  0  0  0  0  0
    5.5760    0.6470   20.0390 C   0  0  0  0  0  0  0  0  0  0  0  0
    3.9090    1.2050   21.8230 C   0  0  0  0  0  0  0  0  0  0  0  0
    3.7510    1.1750   23.3140 C   0  0  0  0  0  0  0  0  0  0  0  0
   10.6390   -0.1470   22.8500 C   0  0  0  0  0  0  0  0  0  0  0  0
   11.1840    0.7680   23.7420 C   0  0  0  0  0  0  0  0  0  0  0  0
   12.5500    0.9990   23.7740 C   0  0  0  0  0  0  0  0  0  0  0  0
   13.3960    0.3050   22.9240 C   0  0  0  0  0  0  0  0  0  0  0  0
   12.8510   -0.6260   22.0630 C   0  0  0  0  0  0  0  0  0  0  0  0
   11.4900   -0.8550   22.0070 C   0  0  0  0  0  0  0  0  0  0  0  0
  5  2  1  6
  8  3  2  0
  8  1  1  0
  8  5  1  0
 10  1  1  0
 11 10  1  0
 11  6  2  0
 12  6  1  0
 13 12  2  0
 14 13  1  0
 14  9  1  0
 14 10  2  0
 15  9  1  0
 15  7  2  0
 16 15  1  0
 17  5  1  0
 18 17  2  0
 19 18  1  0
 20 19  2  0
 21  4  1  0
 21 20  1  0
 22 17  1  0
 22 21  2  0
M  END
