
     RDKit          3D

 20 22  0  0  0  0  0  0  0  0999 V2000
    8.9480    0.9070   21.1690 O   0  0  0  0  0  0  0  0  0  0  0  0
    8.5720   -0.2200   21.4800 C   0  0  0  0  0  0  0  0  0  0  0  0
    8.9860   -0.8650   22.7890 C   0  0  0  0  0  0  0  0  0  0  0  0
   10.4640   -0.6640   23.0250 C   0  0  0  0  0  0  0  0  0  0  0  0
   10.9170    0.2780   23.9400 C   0  0  0  0  0  0  0  0  0  0  0  0
   12.2540    0.6430   23.9790 C   0  0  0  0  0  0  0  0  0  0  0  0
   13.1640    0.0520   23.1130 C   0  0  0  0  0  0  0  0  0  0  0  0
   11.3880   -1.2980   22.2000 C   0  0  0  0  0  0  0  0  0  0  0  0
   12.7160   -0.9310   22.2540 C   0  0  0  0  0  0  0  0  0  0  0  0
   13.8570   -1.7470   21.2190 Cl  0  0  0  0  0  0  0  0  0  0  0  0
    7.7440   -0.9590   20.7200 N   0  0  0  0  0  0  0  0  0  0  0  0
    7.0800   -0.3560   19.6590 N   0  0  0  0  0  0  0  0  0  0  0  0
    5.8960    0.3720   19.7570 C   0  0  0  0  0  0  0  0  0  0  0  0
    5.6810    0.8480   18.4630 C   0  0  0  0  0  0  0  0  0  0  0  0
    6.6790    0.3820   17.6000 N   0  0  0  0  0  0  0  0  0  0  0  0
    7.4790   -0.3180   18.3640 C   0  0  0  0  0  0  0  0  0  0  0  0
    5.1320    0.7930   20.8380 C   0  0  0  0  0  0  0  0  0  0  0  0
    4.1190    1.7130   20.5920 C   0  0  0  0  0  0  0  0  0  0  0  0
    3.8820    2.1920   19.3010 C   0  0  0  0  0  0  0  0  0  0  0  0
    4.6580    1.7650   18.2270 C   0  0  0  0  0  0  0  0  0  0  0  0
  2  1  2  0
  3  2  1  0
  4  3  1  0
  5  4  2  0
  6  5  1  0
  7  6  2  0
  8  4  1  0
  9  8  2  0
  9  7  1  0
 10  9  1  0
 11  2  1  0
 12 11  1  0
 13 12  1  0
 14 13  2  0
 15 14  1  0
 16 15  2  0
 16 12  1  0
 17 13  1  0
 18 17  2  0
 19 18  1  0
 20 19  2  0
 20 14  1  0
M  END
