
     RDKit          3D

 19 20  0  0  0  0  0  0  0  0999 V2000
    8.5790   -1.2180   21.4590 N   0  0  0  0  0  0  0  0  0  0  0  0
    7.3400   -1.3110   20.9680 C   0  0  0  0  0  0  0  0  0  0  0  0
    6.6140   -2.2750   21.1990 O   0  0  0  0  0  0  0  0  0  0  0  0
    9.0350   -2.0920   22.5190 C   0  0  0  0  0  0  0  0  0  0  0  0
   12.6540   -1.3020   22.7080 N   0  0  0  0  0  0  0  0  0  0  0  0
    6.4310    1.3110   21.9120 O   0  0  0  0  0  0  0  0  0  0  0  0
   10.4060   -1.7450   22.9960 C   0  0  0  0  0  0  0  0  0  0  0  0
    7.8960    4.4340   22.5050 N   0  0  0  0  0  0  0  0  0  0  0  0
   11.4910   -1.5550   22.1230 C   0  0  0  0  0  0  0  0  0  0  0  0
   10.8010   -1.6130   24.2940 C   0  0  0  0  0  0  0  0  0  0  0  0
    6.8470   -0.1750   20.1230 C   0  0  0  0  0  0  0  0  0  0  0  0
    6.8640   -0.4000   18.7440 C   0  0  0  0  0  0  0  0  0  0  0  0
    6.1800    0.4450   17.8860 C   0  0  0  0  0  0  0  0  0  0  0  0
    5.4610    1.5090   18.3850 C   0  0  0  0  0  0  0  0  0  0  0  0
    5.4740    1.7900   19.7430 C   0  0  0  0  0  0  0  0  0  0  0  0
    6.2050    0.9760   20.5980 C   0  0  0  0  0  0  0  0  0  0  0  0
    7.7250    1.8350   22.2640 C   0  0  0  0  0  0  0  0  0  0  0  0
    7.7930    3.3010   22.4000 C   0  0  0  0  0  0  0  0  0  0  0  0
   12.4520   -1.2780   24.3660 S   0  0  0  0  0  0  0  0  0  0  0  0
  2  1  1  0
  3  2  2  0
  4  1  1  0
  7  4  1  0
  9  7  1  0
  9  5  2  0
 10  7  2  0
 11  2  1  0
 12 11  2  0
 13 12  1  0
 14 13  2  0
 15 14  1  0
 16 15  2  0
 16 11  1  0
 16  6  1  0
 17  6  1  0
 18 17  1  0
 18  8  3  0
 19 10  1  0
 19  5  1  0
M  END
