
     RDKit          3D

  9 10  0  0  0  0  0  0  0  0999 V2000
    7.6720   -5.5360   21.3910 O   0  0  0  0  0  0  0  0  0  0  0  0
    7.8610   -2.8230   22.4410 S   0  0  0  0  0  0  0  0  0  0  0  0
    6.6160   -4.0170   22.8870 C   0  0  0  0  0  0  0  0  0  0  0  0
    5.6170   -3.6870   23.8180 C   0  0  0  0  0  0  0  0  0  0  0  0
    4.6550   -4.6590   24.1400 C   0  0  0  0  0  0  0  0  0  0  0  0
    4.7370   -5.9190   23.5150 C   0  0  0  0  0  0  0  0  0  0  0  0
    5.7550   -6.1740   22.6020 C   0  0  0  0  0  0  0  0  0  0  0  0
    6.6730   -5.2140   22.3130 N   0  0  0  0  0  0  0  0  0  0  0  0
    8.9600   -3.9740   21.0840 Zn  0  0  0  0  0  2  0  0  0  0  0  0
  3  2  1  0
  4  3  1  0
  5  4  1  0
  6  5  1  0
  7  6  1  0
  8  1  1  0
  8  7  1  0
  8  3  1  0
  9  1  1  0
  9  2  1  0
M  END
$$$$
