
     RDKit          3D

 13 14  0  0  0  0  0  0  0  0999 V2000
   31.0630   45.7430   -8.4160 O   0  0  0  0  0  0  0  0  0  0  0  0
   31.9870   46.2180   -7.6300 C   0  0  0  0  0  0  0  0  0  0  0  0
   32.9900   46.7340   -8.0150 O   0  0  0  0  0  0  0  0  0  0  0  0
   31.7270   46.0090   -6.1640 C   0  0  2  0  0  0  0  0  0  0  0  0
   29.1130   48.0830   -7.2630 C   0  0  0  0  0  0  0  0  0  0  0  0
   28.6890   49.3810   -7.4780 C   0  0  0  0  0  0  0  0  0  0  0  0
   30.2310   49.1610   -5.5790 C   0  0  0  0  0  0  0  0  0  0  0  0
   31.6690   44.5170   -5.8030 C   0  0  0  0  0  0  0  0  0  0  0  0
   30.1940   44.2000   -5.6510 C   0  0  0  0  0  0  0  0  0  0  0  0
   29.9850   47.9460   -6.1550 C   0  0  0  0  0  0  0  0  0  0  0  0
   30.4260   46.6220   -5.5750 C   0  0  1  0  0  0  0  0  0  0  0  0
   29.3710   50.4220   -6.3470 S   0  0  0  0  0  0  0  0  0  0  0  0
   29.4140   45.4960   -5.8160 C   0  0  0  0  0  0  0  0  0  0  0  0
  2  1  2  0
  3  2  1  0
  4  2  1  6
  6  5  2  0
  8  4  1  0
  9  8  1  0
 10  5  1  0
 10  7  2  0
 11 10  1  6
 11  4  1  0
 12  7  1  0
 12  6  1  0
 13 11  1  0
 13  9  1  0
M  END
