
     RDKit          3D

 20 22  0  0  0  0  0  0  0  0999 V2000
   31.4360   45.6630   -8.5910 O   0  0  0  0  0  0  0  0  0  0  0  0
   30.6740   45.9420   -7.4220 C   0  0  2  0  0  0  0  0  0  0  0  0
   30.5880   44.7580   -6.4540 C   0  0  2  0  0  0  0  0  0  0  0  0
   30.8450   43.5250   -7.1070 O   0  0  0  0  0  0  0  0  0  0  0  0
   32.2280   43.1690   -7.1450 C   0  0  0  0  0  0  0  0  0  0  0  0
   29.2150   46.1450   -7.8040 C   0  0  1  0  0  0  0  0  0  0  0  0
   28.4720   45.8120   -6.6600 O   0  0  0  0  0  0  0  0  0  0  0  0
   29.1020   44.6550   -6.0870 C   0  0  2  0  0  0  0  0  0  0  0  0
   28.7590   44.5600   -4.6280 C   0  0  0  0  0  0  0  0  0  0  0  0
   27.4060   44.1070   -4.4610 O   0  0  0  0  0  0  0  0  0  0  0  0
   28.8670   47.5030   -8.1840 N   0  0  0  0  0  0  0  0  0  0  0  0
   28.9490   48.6420   -7.4160 C   0  0  0  0  0  0  0  0  0  0  0  0
   28.4050   49.6530   -8.1870 C   0  0  0  0  0  0  0  0  0  0  0  0
   28.0150   49.1710   -9.4290 N   0  0  0  0  0  0  0  0  0  0  0  0
   28.3170   47.8980   -9.3750 C   0  0  0  0  0  0  0  0  0  0  0  0
   29.3970   48.7410   -6.1560 N   0  0  0  0  0  0  0  0  0  0  0  0
   29.2780   50.0020   -5.7040 C   0  0  0  0  0  0  0  0  0  0  0  0
   28.7930   51.0720   -6.3420 N   0  0  0  0  0  0  0  0  0  0  0  0
   28.3130   50.9270   -7.5960 C   0  0  0  0  0  0  0  0  0  0  0  0
   27.7440   51.9760   -8.2050 N   0  0  0  0  0  0  0  0  0  0  0  0
  2  1  1  6
  3  2  1  0
  3  4  1  6
  5  4  1  0
  6  2  1  0
  7  6  1  0
  8  7  1  0
  8  3  1  0
  8  9  1  1
 10  9  1  0
  6 11  1  1
 12 11  1  0
 13 12  2  0
 14 13  1  0
 15 11  1  0
 15 14  2  0
 16 12  1  0
 17 16  2  0
 18 17  1  0
 19 18  2  0
 19 13  1  0
 20 19  1  0
M  END
