
     RDKit          3D

 18 19  0  0  0  0  0  0  0  0999 V2000
    1.5060    3.7940   25.2050 C   0  0  0  0  0  0  0  0  0  0  0  0
    0.5080    4.5020   25.8610 C   0  0  0  0  0  0  0  0  0  0  0  0
   -0.7990    4.0350   25.8950 C   0  0  0  0  0  0  0  0  0  0  0  0
   -1.1170    2.8450   25.2610 C   0  0  0  0  0  0  0  0  0  0  0  0
   -0.1270    2.1350   24.5940 C   0  0  0  0  0  0  0  0  0  0  0  0
    1.1880    2.5990   24.5660 C   0  0  0  0  0  0  0  0  0  0  0  0
    2.2440    1.7850   23.8200 C   0  0  0  0  0  0  0  0  0  0  0  0
    2.1140    0.6050   23.7620 O   0  0  0  0  0  0  0  0  0  0  0  0
    3.3820    2.4390   23.1830 N   0  0  0  0  0  0  0  0  0  0  0  0
    4.3910    1.6830   22.4390 C   0  0  0  0  0  0  0  0  0  0  0  0
    3.8950    1.6130   20.9940 C   0  0  0  0  0  0  0  0  0  0  0  0
    4.8960    1.1370   19.9370 C   0  0  0  0  0  0  0  0  0  0  0  0
    5.9070    0.2140   20.2020 C   0  0  0  0  0  0  0  0  0  0  0  0
    6.7530   -0.1540   19.1540 C   0  0  0  0  0  0  0  0  0  0  0  0
    6.6150    0.3490   17.9350 N   0  0  0  0  0  0  0  0  0  0  0  0
    5.6620    1.2160   17.6820 C   0  0  0  0  0  0  0  0  0  0  0  0
    4.7820    1.6390   18.6620 C   0  0  0  0  0  0  0  0  0  0  0  0
    2.7890    4.2800   25.1960 F   0  0  0  0  0  0  0  0  0  0  0  0
  2  1  2  0
  3  2  1  0
  4  3  2  0
  5  4  1  0
  6  5  2  0
  6  1  1  0
  7  6  1  0
  8  7  2  0
  9  7  1  0
 10  9  1  0
 11 10  1  0
 12 11  1  0
 13 12  2  0
 14 13  1  0
 15 14  2  0
 16 15  1  0
 17 12  1  0
 17 16  2  0
 18  1  1  0
M  END
