
     RDKit          3D

 29 32  0  0  0  0  0  0  0  0999 V2000
   12.8080   -1.0410   23.1490 C   0  0  0  0  0  0  0  0  0  0  0  0
   11.5620   -1.5470   22.8190 C   0  0  0  0  0  0  0  0  0  0  0  0
    9.1210   -1.2210   22.2990 C   0  0  0  0  0  0  0  0  0  0  0  0
   10.6870    0.6870   22.8410 C   0  0  0  0  0  0  0  0  0  0  0  0
    8.5730   -2.3570   22.9010 C   0  0  0  0  0  0  0  0  0  0  0  0
    6.3290   -0.3170   19.8590 C   0  0  0  0  0  0  0  0  0  0  0  0
    6.7070   -4.0790   23.2230 C   0  0  0  0  0  0  0  0  0  0  0  0
    5.1340    0.2840   20.1490 C   0  0  0  0  0  0  0  0  0  0  0  0
    4.4370    0.9320   19.1850 C   0  0  0  0  0  0  0  0  0  0  0  0
    4.9340    0.9720   17.9070 C   0  0  0  0  0  0  0  0  0  0  0  0
    6.8180   -0.2570   18.5440 C   0  0  0  0  0  0  0  0  0  0  0  0
    7.2780   -2.8500   22.5130 C   0  0  0  0  0  0  0  0  0  0  0  0
    6.0530   -5.1340   22.5790 C   0  0  0  0  0  0  0  0  0  0  0  0
    5.5610   -6.1960   23.3210 C   0  0  0  0  0  0  0  0  0  0  0  0
    5.7060   -6.2230   24.6900 C   0  0  0  0  0  0  0  0  0  0  0  0
    6.3470   -5.1980   25.3400 C   0  0  0  0  0  0  0  0  0  0  0  0
    6.8460   -4.1290   24.6160 C   0  0  0  0  0  0  0  0  0  0  0  0
    5.8400   -5.1770   21.0650 C   0  0  0  0  0  0  0  0  0  0  0  0
   12.9990    0.3160   23.3270 C   0  0  0  0  0  0  0  0  0  0  0  0
   10.4960   -0.6770   22.6730 C   0  0  0  0  0  0  0  0  0  0  0  0
   11.9360    1.1830   23.1690 C   0  0  0  0  0  0  0  0  0  0  0  0
    8.3280   -0.5400   21.2590 C   0  0  0  0  0  0  0  0  0  0  0  0
    6.5100   -2.1730   21.5140 C   0  0  0  0  0  0  0  0  0  0  0  0
    7.0710   -1.0140   20.8910 N   0  0  0  0  0  0  0  0  0  0  0  0
    6.1030    0.3900   17.6110 N   0  0  0  0  0  0  0  0  0  0  0  0
    5.6730   -5.2210   19.9480 N   0  0  0  0  0  0  0  0  0  0  0  0
    8.8350    0.5930   20.6480 O   0  0  0  0  0  0  0  0  0  0  0  0
   14.1790   -2.1550   23.3600 Cl  0  0  0  0  0  0  0  0  0  0  0  0
   12.1750    2.9340   23.3770 Cl  0  0  0  0  0  0  0  0  0  0  0  0
  2  1  1  0
  5  3  1  0
  8  6  1  0
  9  8  1  0
 10  9  1  0
 11  6  1  0
 12  7  1  0
 12  5  1  0
 13  7  1  0
 14 13  1  0
 15 14  1  0
 16 15  1  0
 17 16  1  0
 17  7  1  0
 18 13  1  0
 19  1  1  0
 20  4  1  0
 20  3  1  0
 20  2  1  0
 21  4  1  0
 21 19  1  0
 22  3  1  0
 23 12  1  0
 24 23  1  0
 24 22  1  0
 24  6  1  0
 25 10  1  0
 25 11  1  0
 26 18  1  0
 27 22  1  0
 28  1  1  0
 29 21  1  0
M  END
