
     RDKit          3D

 28 31  0  0  0  0  0  0  0  0999 V2000
    9.3370    0.8770   21.1040 O   0  0  0  0  0  0  0  0  0  0  0  0
    8.9850   -0.2300   21.4870 C   0  0  0  0  0  0  0  0  0  0  0  0
    7.9640   -1.0280   20.6980 C   0  0  0  0  0  0  0  0  0  0  0  0
    7.1190   -0.1760   19.7720 C   0  0  2  0  0  0  0  0  0  0  0  0
    6.0190    0.5750   20.2730 C   0  0  0  0  0  0  0  0  0  0  0  0
    5.6830    0.6400   21.6500 C   0  0  0  0  0  0  0  0  0  0  0  0
    4.5880    1.3370   22.0730 C   0  0  0  0  0  0  0  0  0  0  0  0
    3.7770    2.0000   21.1620 C   0  0  0  0  0  0  0  0  0  0  0  0
    4.0710    1.9860   19.8290 C   0  0  0  0  0  0  0  0  0  0  0  0
    5.1960    1.2750   19.3490 C   0  0  0  0  0  0  0  0  0  0  0  0
    5.5420    1.1940   17.9800 C   0  0  0  0  0  0  0  0  0  0  0  0
    6.5830    0.5110   17.5160 N   0  0  0  0  0  0  0  0  0  0  0  0
    7.3360   -0.1490   18.4070 C   0  0  0  0  0  0  0  0  0  0  0  0
    9.4630   -0.7820   22.6270 N   0  0  0  0  0  0  0  0  0  0  0  0
   10.3320   -0.0160   23.5010 C   0  0  0  0  0  0  0  0  0  0  0  0
   11.7400   -0.0230   22.9920 C   0  0  0  0  0  0  0  0  0  0  0  0
   12.8960    1.0920   23.5800 S   0  0  0  0  0  0  0  0  0  0  0  0
   14.1160    0.4350   22.5620 C   0  0  0  0  0  0  0  0  0  0  0  0
   13.6790   -0.5930   21.8020 C   0  0  0  0  0  0  0  0  0  0  0  0
   12.3120   -0.8890   22.0170 C   0  0  0  0  0  0  0  0  0  0  0  0
    9.1430   -2.1470   23.0710 C   0  0  0  0  0  0  0  0  0  0  0  0
    7.9910   -2.1410   24.0700 C   0  0  0  0  0  0  0  0  0  0  0  0
    7.9570   -3.1290   25.2560 C   0  0  1  0  0  0  0  0  0  0  0  0
    6.7180   -4.0250   25.2420 C   0  0  0  0  0  0  0  0  0  0  0  0
    6.6310   -4.9150   26.4840 C   0  0  0  0  0  0  0  0  0  0  0  0
    7.8900   -5.7540   26.6660 C   0  0  0  0  0  0  0  0  0  0  0  0
    9.1390   -4.8750   26.6600 C   0  0  0  0  0  0  0  0  0  0  0  0
    9.2020   -3.9990   25.4060 C   0  0  0  0  0  0  0  0  0  0  0  0
  2  1  1  0
  3  2  1  0
  4  3  1  6
  5  4  1  0
  6  5  1  0
  7  6  1  0
  8  7  1  0
  9  8  1  0
 10  9  1  0
 10  5  1  0
 11 10  1  0
 12 11  1  0
 13 12  1  0
 13  4  1  0
 14  2  1  0
 15 14  1  0
 16 15  1  0
 17 16  1  0
 18 17  1  0
 19 18  1  0
 20 19  1  0
 20 16  1  0
 21 14  1  0
 22 21  1  0
 23 22  1  6
 24 23  1  0
 25 24  1  0
 26 25  1  0
 27 26  1  0
 28 27  1  0
 28 23  1  0
M  END
$$$$
