
     RDKit          3D

  7  7  0  0  0  0  0  0  0  0999 V2000
   27.5060   57.5100   -5.0650 N   0  0  0  0  0  0  0  0  0  0  0  0
   27.4560   57.2170   -6.1660 C   0  0  0  0  0  0  0  0  0  0  0  0
   27.3420   56.8210   -7.5390 C   0  0  0  0  0  0  0  0  0  0  0  0
   28.3980   56.3870   -8.3460 C   0  0  0  0  0  0  0  0  0  0  0  0
   27.9750   56.0570   -9.5360 N   0  0  0  0  0  0  0  0  0  0  0  0
   26.5120   56.2890   -9.4940 C   0  0  0  0  0  0  0  0  0  0  0  0
   26.2110   56.8030   -8.1500 N   0  0  0  0  0  0  0  0  0  0  0  0
  2  1  1  0
  3  2  1  0
  4  3  1  0
  5  4  1  0
  6  5  1  0
  7  6  1  0
  7  3  1  0
M  END
$$$$
