
     RDKit          3D

 22 25  0  0  0  0  0  0  0  0999 V2000
    8.5410    0.9130   21.0870 O   0  0  0  0  0  0  0  0  0  0  0  0
    8.2120   -0.2710   21.1220 C   0  0  0  0  0  0  0  0  0  0  0  0
    8.7340   -1.2340   22.1880 C   0  0  1  0  0  0  0  0  0  0  0  0
   10.2190   -1.5760   21.9430 C   0  0  0  0  0  0  0  0  0  0  0  0
   11.1150   -0.7600   22.8410 C   0  0  0  0  0  0  0  0  0  0  0  0
   10.7410   -0.9020   24.2210 O   0  0  0  0  0  0  0  0  0  0  0  0
    8.4320   -0.6140   23.5390 C   0  0  0  0  0  0  0  0  0  0  0  0
    9.4520   -0.5090   24.4850 C   0  0  0  0  0  0  0  0  0  0  0  0
    9.2270    0.0570   25.7290 C   0  0  0  0  0  0  0  0  0  0  0  0
    7.9790    0.5700   26.0310 C   0  0  0  0  0  0  0  0  0  0  0  0
    7.1760   -0.0960   23.8610 C   0  0  0  0  0  0  0  0  0  0  0  0
    6.9750    0.4990   25.0910 C   0  0  0  0  0  0  0  0  0  0  0  0
    5.4220    1.2070   25.4510 Cl  0  0  0  0  0  0  0  0  0  0  0  0
    7.5350   -0.8620   20.1070 N   0  0  0  0  0  0  0  0  0  0  0  0
    6.7720   -0.4030   19.0860 C   0  0  0  0  0  0  0  0  0  0  0  0
    5.8220    0.5820   19.2470 N   0  0  0  0  0  0  0  0  0  0  0  0
    5.5400    1.0060   17.9800 C   0  0  0  0  0  0  0  0  0  0  0  0
    6.2260    0.3400   17.1000 N   0  0  0  0  0  0  0  0  0  0  0  0
    7.0050   -0.5760   17.7960 N   0  0  0  0  0  0  0  0  0  0  0  0
    5.1610    0.9910   20.5080 C   0  0  2  0  0  0  0  0  0  0  0  0
    3.9230    1.8160   20.4230 C   0  0  0  0  0  0  0  0  0  0  0  0
    5.2020    2.4260   20.9030 C   0  0  0  0  0  0  0  0  0  0  0  0
  2  1  2  0
  3  2  1  6
  4  3  1  0
  5  4  1  0
  6  5  1  0
  7  3  1  0
  8  7  2  0
  8  6  1  0
  9  8  1  0
 10  9  2  0
 11  7  1  0
 12 11  2  0
 12 10  1  0
 13 12  1  0
 14  2  1  0
 15 14  1  0
 16 15  1  0
 17 16  1  0
 18 17  2  0
 19 18  1  0
 19 15  2  0
 20 16  1  6
 21 20  1  0
 22 21  1  0
 22 20  1  0
M  END
