
     RDKit          3D

 21 23  0  0  0  0  0  0  0  0999 V2000
   13.9360   -1.8550   21.2690 Cl  0  0  0  0  0  0  0  0  0  0  0  0
   12.7880   -1.0140   22.2560 C   0  0  0  0  0  0  0  0  0  0  0  0
   13.2350   -0.0210   23.1120 C   0  0  0  0  0  0  0  0  0  0  0  0
   12.3230    0.6700   23.8890 C   0  0  0  0  0  0  0  0  0  0  0  0
   11.4560   -1.3460   22.1550 C   0  0  0  0  0  0  0  0  0  0  0  0
   10.5390   -0.6330   22.9100 C   0  0  0  0  0  0  0  0  0  0  0  0
   10.9830    0.3640   23.7560 C   0  0  0  0  0  0  0  0  0  0  0  0
    9.9190    1.0320   24.3250 O   0  0  0  0  0  0  0  0  0  0  0  0
    8.7330    0.2040   24.1510 C   0  0  0  0  0  0  0  0  0  0  0  0
    9.0340   -0.6560   22.9250 C   0  0  1  0  0  0  0  0  0  0  0  0
    8.5880    0.0400   21.6410 C   0  0  0  0  0  0  0  0  0  0  0  0
    9.1240    1.0680   21.2300 O   0  0  0  0  0  0  0  0  0  0  0  0
    7.5440   -0.5410   21.0450 N   0  0  0  0  0  0  0  0  0  0  0  0
    6.8400    0.0470   19.9830 C   0  0  0  0  0  0  0  0  0  0  0  0
    5.6530    0.7400   20.2520 C   0  0  0  0  0  0  0  0  0  0  0  0
    5.1480    0.9240   21.6640 C   0  0  0  0  0  0  0  0  0  0  0  0
    4.0120    1.7780   21.7470 O   0  0  0  0  0  0  0  0  0  0  0  0
    7.3000   -0.0210   18.6730 C   0  0  0  0  0  0  0  0  0  0  0  0
    6.6480    0.5290   17.6480 N   0  0  0  0  0  0  0  0  0  0  0  0
    5.5060    1.1740   17.9110 C   0  0  0  0  0  0  0  0  0  0  0  0
    4.9740    1.2970   19.1780 C   0  0  0  0  0  0  0  0  0  0  0  0
  2  1  1  0
  3  2  2  0
  4  3  1  0
  5  2  1  0
  6  5  2  0
  7  6  1  0
  7  4  2  0
  8  7  1  0
  9  8  1  0
 10  9  1  0
 10  6  1  0
 10 11  1  6
 12 11  2  0
 13 11  1  0
 14 13  1  0
 15 14  2  0
 16 15  1  0
 17 16  1  0
 18 14  1  0
 19 18  2  0
 20 19  1  0
 21 20  2  0
 21 15  1  0
M  END
