
     RDKit          3D

 26 29  0  0  0  0  0  0  0  0999 V2000
    8.4920    0.9570   21.3750 O   0  0  0  0  0  0  0  0  0  0  0  0
    8.1920   -0.2180   21.5350 C   0  0  0  0  0  0  0  0  0  0  0  0
    8.6310   -0.9960   22.8270 C   0  0  1  0  0  0  0  0  0  0  0  0
   10.0640   -0.5840   23.1580 C   0  0  0  0  0  0  0  0  0  0  0  0
   11.1640   -1.2920   22.6820 C   0  0  0  0  0  0  0  0  0  0  0  0
   12.4100   -0.6960   22.7090 C   0  0  0  0  0  0  0  0  0  0  0  0
   13.7630   -1.5420   22.0150 Cl  0  0  0  0  0  0  0  0  0  0  0  0
   12.6060    0.5590   23.2460 C   0  0  0  0  0  0  0  0  0  0  0  0
   11.5290    1.2420   23.7810 C   0  0  0  0  0  0  0  0  0  0  0  0
   10.2540    0.6780   23.7360 C   0  0  0  0  0  0  0  0  0  0  0  0
    9.1510    1.4000   24.2000 N   0  0  0  0  0  0  0  0  0  0  0  0
    7.8880    0.9270   24.2520 C   0  0  0  0  0  0  0  0  0  0  0  0
    6.9270    1.6740   24.4370 O   0  0  0  0  0  0  0  0  0  0  0  0
    7.7040   -0.5420   23.9690 C   0  0  0  0  0  0  0  0  0  0  0  0
    8.5110   -2.4090   22.7090 O   0  0  0  0  0  0  0  0  0  0  0  0
    7.5290   -0.9000   20.5820 N   0  0  0  0  0  0  0  0  0  0  0  0
    6.5820   -0.4640   19.6370 C   0  0  0  0  0  0  0  0  0  0  0  0
    5.5790    0.4990   19.9910 C   0  0  0  0  0  0  0  0  0  0  0  0
    5.0370    0.6330   21.2970 C   0  0  0  0  0  0  0  0  0  0  0  0
    4.0150    1.5050   21.5490 C   0  0  0  0  0  0  0  0  0  0  0  0
    3.4860    2.2880   20.5350 C   0  0  0  0  0  0  0  0  0  0  0  0
    3.9740    2.2010   19.2640 C   0  0  0  0  0  0  0  0  0  0  0  0
    5.0230    1.3020   18.9540 C   0  0  0  0  0  0  0  0  0  0  0  0
    5.5070    1.1090   17.6400 C   0  0  0  0  0  0  0  0  0  0  0  0
    6.4020    0.1940   17.3070 N   0  0  0  0  0  0  0  0  0  0  0  0
    6.8870   -0.5790   18.2850 C   0  0  0  0  0  0  0  0  0  0  0  0
  2  1  2  0
  3  2  1  0
  4  3  1  0
  5  4  2  0
  6  5  1  0
  7  6  1  0
  8  6  2  0
  9  8  1  0
 10  4  1  0
 10  9  2  0
 11 10  1  0
 12 11  1  0
 13 12  2  0
 14 12  1  0
 14  3  1  0
  3 15  1  6
 16  2  1  0
 17 16  1  0
 18 17  1  0
 19 18  2  0
 20 19  1  0
 21 20  2  0
 22 21  1  0
 23 22  2  0
 23 18  1  0
 24 23  1  0
 25 24  2  0
 26 25  1  0
 26 17  2  0
M  END
