
     RDKit          3D

 26 29  0  0  0  0  0  0  0  0999 V2000
    9.6750    1.3320   20.9290 O   0  0  0  0  0  0  0  0  0  0  0  0
    9.1810    0.4150   21.5660 C   0  0  0  0  0  0  0  0  0  0  0  0
    9.8390   -0.0630   22.8880 C   0  0  1  0  0  0  0  0  0  0  0  0
   11.3520   -0.0130   22.8640 C   0  0  0  0  0  0  0  0  0  0  0  0
   12.0770   -0.6560   21.8630 C   0  0  0  0  0  0  0  0  0  0  0  0
   13.4520   -0.5330   21.8350 C   0  0  0  0  0  0  0  0  0  0  0  0
   14.3420   -1.3540   20.5840 Cl  0  0  0  0  0  0  0  0  0  0  0  0
   14.1370    0.2180   22.7680 C   0  0  0  0  0  0  0  0  0  0  0  0
   13.4320    0.8570   23.7710 C   0  0  0  0  0  0  0  0  0  0  0  0
   12.0500    0.7470   23.8060 C   0  0  0  0  0  0  0  0  0  0  0  0
   11.4240    1.4820   24.7810 O   0  0  0  0  0  0  0  0  0  0  0  0
   10.1240    0.9950   25.1460 C   0  0  0  0  0  0  0  0  0  0  0  0
    9.2330    0.8870   23.9330 C   0  0  0  0  0  0  0  0  0  0  0  0
    9.2910   -1.3480   23.2110 O   0  0  0  0  0  0  0  0  0  0  0  0
    9.7570   -2.4740   22.4540 C   0  0  0  0  0  0  0  0  0  0  0  0
    8.0160   -0.1760   21.2280 N   0  0  0  0  0  0  0  0  0  0  0  0
    7.2120    0.1510   20.1240 C   0  0  0  0  0  0  0  0  0  0  0  0
    5.9820    0.8370   20.3590 C   0  0  0  0  0  0  0  0  0  0  0  0
    5.5020    1.1760   21.6520 C   0  0  0  0  0  0  0  0  0  0  0  0
    4.3210    1.8460   21.8080 C   0  0  0  0  0  0  0  0  0  0  0  0
    3.5670    2.2220   20.6990 C   0  0  0  0  0  0  0  0  0  0  0  0
    3.9890    1.9190   19.4360 C   0  0  0  0  0  0  0  0  0  0  0  0
    5.2020    1.2140   19.2320 C   0  0  0  0  0  0  0  0  0  0  0  0
    5.6990    0.8840   17.9470 C   0  0  0  0  0  0  0  0  0  0  0  0
    6.8430    0.2510   17.7310 N   0  0  0  0  0  0  0  0  0  0  0  0
    7.5650   -0.1080   18.7990 C   0  0  0  0  0  0  0  0  0  0  0  0
  2  1  2  0
  3  2  1  0
  4  3  1  0
  5  4  2  0
  6  5  1  0
  7  6  1  0
  8  6  2  0
  9  8  1  0
 10  9  2  0
 10  4  1  0
 11 10  1  0
 12 11  1  0
 13 12  1  0
 13  3  1  0
  3 14  1  1
 15 14  1  0
 16  2  1  0
 17 16  1  0
 18 17  1  0
 19 18  2  0
 20 19  1  0
 21 20  2  0
 22 21  1  0
 23 22  2  0
 23 18  1  0
 24 23  1  0
 25 24  2  0
 26 25  1  0
 26 17  2  0
M  END
