
     RDKit          3D

 35 37  0  0  0  0  0  0  0  0999 V2000
   12.7370    6.7850   24.6850 F   0  0  0  0  0  0  0  0  0  0  0  0
   12.5400    5.6620   23.9420 C   0  0  0  0  0  0  0  0  0  0  0  0
   11.4880    4.8350   24.2750 C   0  0  0  0  0  0  0  0  0  0  0  0
   13.3630    5.4380   22.8720 C   0  0  0  0  0  0  0  0  0  0  0  0
   13.1040    4.3310   22.0820 C   0  0  0  0  0  0  0  0  0  0  0  0
   12.0460    3.4840   22.3810 C   0  0  0  0  0  0  0  0  0  0  0  0
   11.2230    3.7260   23.4730 C   0  0  0  0  0  0  0  0  0  0  0  0
   10.0360    2.8320   23.7580 C   0  0  0  0  0  0  0  0  0  0  0  0
    8.7520    3.2630   23.0390 C   0  0  0  0  0  0  0  0  0  0  0  0
    7.8780    2.1380   22.7200 N   0  0  0  0  0  0  0  0  0  0  0  0
    8.0660    1.3800   21.6370 C   0  0  0  0  0  0  0  0  0  0  0  0
    8.9960    1.5470   20.8590 O   0  0  0  0  0  0  0  0  0  0  0  0
    7.0230    0.2700   21.4020 C   0  0  1  0  0  0  0  0  0  0  0  0
    6.3640    0.3910   20.0330 C   0  0  1  0  0  0  0  0  0  0  0  0
    5.1840    1.1030   19.8720 C   0  0  0  0  0  0  0  0  0  0  0  0
    4.7060    1.3810   18.6060 C   0  0  0  0  0  0  0  0  0  0  0  0
    5.4210    0.9120   17.5190 C   0  0  0  0  0  0  0  0  0  0  0  0
    6.5450    0.1940   17.6340 N   0  0  0  0  0  0  0  0  0  0  0  0
    6.9880   -0.0560   18.8740 C   0  0  0  0  0  0  0  0  0  0  0  0
    7.5420   -1.0880   21.7240 N   0  0  0  0  0  0  0  0  0  0  0  0
    6.7890   -2.2070   21.4880 C   0  0  0  0  0  0  0  0  0  0  0  0
    5.6410   -2.1330   21.0650 O   0  0  0  0  0  0  0  0  0  0  0  0
    7.4080   -3.5650   21.7540 C   0  0  0  0  0  0  0  0  0  0  0  0
    7.4240   -4.4470   20.5040 C   0  0  0  0  0  0  0  0  0  0  0  0
    8.8350   -1.1630   22.3540 C   0  0  0  0  0  0  0  0  0  0  0  0
    9.9810   -1.4020   21.5980 C   0  0  0  0  0  0  0  0  0  0  0  0
   11.2210   -1.4660   22.2150 C   0  0  0  0  0  0  0  0  0  0  0  0
   11.3530   -1.3000   23.5930 C   0  0  0  0  0  0  0  0  0  0  0  0
   12.7130   -1.3970   24.3010 C   0  0  1  0  0  0  0  0  0  0  0  0
   12.6310   -2.4340   25.4270 C   0  0  0  0  0  0  0  0  0  0  0  0
   13.8550   -1.8230   23.3670 C   0  0  0  0  0  0  0  0  0  0  0  0
   13.0800   -0.0370   24.9060 C   0  0  0  0  0  0  0  0  0  0  0  0
   10.2020   -1.0560   24.3380 C   0  0  0  0  0  0  0  0  0  0  0  0
    8.9570   -0.9950   23.7360 C   0  0  0  0  0  0  0  0  0  0  0  0
    8.2980   -3.6930   19.0930 S   0  0  0  0  0  0  0  0  0  0  0  0
  2  1  1  0
  3  2  1  0
  4  2  1  0
  5  4  1  0
  6  5  1  0
  7  6  1  0
  7  3  1  0
  8  7  1  0
  9  8  1  0
 10  9  1  0
 11 10  1  0
 12 11  1  0
 13 11  1  6
 14 13  1  0
 14 15  1  6
 16 15  1  0
 17 16  1  0
 18 17  1  0
 19 18  1  0
 19 14  1  0
 20 13  1  0
 21 20  1  0
 22 21  1  0
 23 21  1  0
 24 23  1  0
 25 20  1  0
 26 25  1  0
 27 26  1  0
 28 27  1  0
 29 28  1  0
 29 30  1  1
 31 29  1  0
 32 29  1  0
 33 28  1  0
 34 33  1  0
 34 25  1  0
 24 35  1  0
M  END
$$$$
