
     RDKit          3D

 21 22  0  0  0  0  0  0  0  0999 V2000
    7.4290   -0.3360   21.0030 N   0  0  0  0  0  0  0  0  0  0  0  0
    6.9710   -0.5920   24.1550 C   0  0  0  0  0  0  0  0  0  0  0  0
    8.7050    1.4920   21.4030 O   0  0  0  0  0  0  0  0  0  0  0  0
   13.9330   -1.8590   21.3780 Cl  0  0  0  0  0  0  0  0  0  0  0  0
    8.4810   -0.3790   24.1740 C   0  0  2  0  0  0  0  0  0  0  0  0
    6.5770    0.6210   17.5400 N   0  0  0  0  0  0  0  0  0  0  0  0
    8.8210    0.9130   24.8930 C   0  0  0  0  0  0  0  0  0  0  0  0
    9.1200   -0.4680   22.7460 C   0  0  1  0  0  0  0  0  0  0  0  0
    8.3810    0.3410   21.6780 C   0  0  2  0  0  0  0  0  0  0  0  0
    6.7080    0.1940   19.9050 C   0  0  2  0  0  0  0  0  0  0  0  0
    7.1780    0.0640   18.5980 C   0  0  0  0  0  0  0  0  0  0  0  0
    5.4670    1.3300   17.7660 C   0  0  0  0  0  0  0  0  0  0  0  0
    4.9150    1.5090   19.0190 C   0  0  0  0  0  0  0  0  0  0  0  0
    5.5290    0.9380   20.1290 C   0  0  0  0  0  0  0  0  0  0  0  0
    4.9480    1.1240   21.5070 C   0  0  0  0  0  0  0  0  0  0  0  0
   10.6010   -0.1220   22.7020 C   0  0  0  0  0  0  0  0  0  0  0  0
   11.0820    1.0980   23.1670 C   0  0  0  0  0  0  0  0  0  0  0  0
   12.4320    1.4080   23.0800 C   0  0  0  0  0  0  0  0  0  0  0  0
   13.3200    0.5010   22.5260 C   0  0  0  0  0  0  0  0  0  0  0  0
   12.8330   -0.7030   22.0610 C   0  0  0  0  0  0  0  0  0  0  0  0
   11.4950   -1.0260   22.1420 C   0  0  0  0  0  0  0  0  0  0  0  0
  5  2  1  6
  7  5  1  0
  8  5  1  0
  9  3  1  6
  9  1  1  0
  9  8  1  0
 10  1  1  1
 11 10  1  0
 11  6  1  0
 12  6  1  0
 13 12  1  0
 14 13  1  0
 14 10  1  0
 15 14  1  0
  8 16  1  1
 17 16  1  0
 18 17  1  0
 19 18  1  0
 20  4  1  0
 20 19  1  0
 21 16  1  0
 21 20  1  0
M  END
$$$$
