
     RDKit          3D

 21 23  0  0  0  0  0  0  0  0999 V2000
    7.2510   -2.8590   21.2800 N   0  0  0  0  0  0  0  0  0  0  0  0
   12.4930   -0.8220   22.4140 C   0  0  2  0  0  0  0  0  0  0  0  0
    7.3100   -5.0070   24.2800 C   0  0  0  0  0  0  0  0  0  0  0  0
    8.3930   -1.9670   21.5480 C   0  0  0  0  0  0  0  0  0  0  0  0
   12.6270    0.2120   23.3340 C   0  0  0  0  0  0  0  0  0  0  0  0
   11.2720   -1.4810   22.3360 C   0  0  0  0  0  0  0  0  0  0  0  0
    6.7590   -3.2010   20.0680 C   0  0  0  0  0  0  0  0  0  0  0  0
   10.2090   -1.1410   23.1660 C   0  0  1  0  0  0  0  0  0  0  0  0
   10.3830   -0.1260   24.0970 C   0  0  0  0  0  0  0  0  0  0  0  0
    7.5320   -3.8470   23.5370 C   0  0  0  0  0  0  0  0  0  0  0  0
    9.3610   -4.6720   25.4620 C   0  0  0  0  0  0  0  0  0  0  0  0
    7.5540   -2.7850   18.8560 C   0  0  0  0  0  0  0  0  0  0  0  0
    6.5650   -3.3300   22.5050 C   0  0  0  0  0  0  0  0  0  0  0  0
    8.2200   -5.4080   25.2440 C   0  0  0  0  0  0  0  0  0  0  0  0
    9.5940   -3.5210   24.7260 C   0  0  0  0  0  0  0  0  0  0  0  0
   13.6670   -1.2740   21.5820 C   0  0  0  0  0  0  0  0  0  0  0  0
    5.6960   -3.7690   19.9480 O   0  0  0  0  0  0  0  0  0  0  0  0
    8.8450   -1.8000   23.0060 C   0  0  2  0  0  0  0  0  0  0  0  0
   11.5840    0.5530   24.1780 C   0  0  0  0  0  0  0  0  0  0  0  0
    8.6770   -3.0920   23.7680 C   0  0  2  0  0  0  0  0  0  0  0  0
    9.0210   -3.4190   18.5180 S   0  0  0  0  0  0  0  0  0  0  0  0
  4  1  1  0
  5  2  1  0
  6  2  1  0
  7  1  1  0
  8  6  1  6
  9  8  1  0
 10  3  1  0
 12  7  1  0
 13  1  1  0
 13 10  1  0
 14 11  1  0
 14  3  1  0
 15 11  1  0
  2 16  1  1
 17  7  1  0
 18  4  1  6
 18  8  1  0
 19  9  1  0
 19  5  1  0
 20 18  1  0
 20 15  1  1
 20 10  1  0
 12 21  1  0
M  END
