
     RDKit          3D

 15 16  0  0  0  0  0  0  0  0999 V2000
    7.6710   -0.5890   -4.8510 C   0  0  0  0  0  0  0  0  0  0  0  0
    6.7090   -1.2260   -5.7640 N   0  0  0  0  0  0  0  0  0  0  0  0
    6.1540   -2.4140   -5.5700 C   0  0  0  0  0  0  0  0  0  0  0  0
    5.3320   -2.6400   -6.6140 C   0  0  0  0  0  0  0  0  0  0  0  0
    5.4200   -1.5190   -7.4520 C   0  0  0  0  0  0  0  0  0  0  0  0
    4.6630   -1.2850   -8.7820 C   0  0  0  0  0  0  0  0  0  0  0  0
    4.6740   -0.1980   -9.2410 O   0  0  0  0  0  0  0  0  0  0  0  0
    3.9200   -2.3720   -9.4480 N   0  0  0  0  0  0  0  0  0  0  0  0
    3.1950   -2.1170  -10.7210 C   0  0  0  0  0  0  0  0  0  0  0  0
    4.0710   -2.5210  -11.8680 C   0  0  2  0  0  0  0  0  0  0  0  0
    3.3420   -2.1620  -13.3120 C   0  0  0  0  0  0  0  0  0  0  0  0
    3.7880   -3.0190  -14.1670 C   0  0  0  0  0  0  0  0  0  0  0  0
    4.3000   -4.2570  -13.3360 C   0  0  0  0  0  0  0  0  0  0  0  0
    4.2570   -3.8130  -11.8520 O   0  0  0  0  0  0  0  0  0  0  0  0
    6.2460   -0.6840   -6.9150 N   0  0  0  0  0  0  0  0  0  0  0  0
  2  1  1  0
  3  2  1  0
  4  3  2  0
  5  4  1  0
  6  5  1  0
  7  6  2  0
  8  6  1  0
  9  8  1  0
 10  9  1  1
 11 10  1  0
 12 11  1  0
 13 12  1  0
 14 13  1  0
 14 10  1  0
 15  5  2  0
 15  2  1  0
M  END
