
     RDKit          3D

  8  8  0  0  0  0  0  0  0  0999 V2000
   29.7210   53.8140   -5.3890 C   0  0  0  0  0  0  0  0  0  0  0  0
   29.5330   52.4750   -6.0990 C   0  0  0  0  0  0  0  0  0  0  0  0
   29.9950   51.3090   -5.5050 C   0  0  0  0  0  0  0  0  0  0  0  0
   29.8170   50.1080   -6.1820 C   0  0  0  0  0  0  0  0  0  0  0  0
   29.2220   50.0710   -7.3570 N   0  0  0  0  0  0  0  0  0  0  0  0
   28.7780   51.1680   -7.9400 C   0  0  0  0  0  0  0  0  0  0  0  0
   28.1190   51.0750   -9.2260 N   0  0  0  0  0  0  0  0  0  0  0  0
   28.9070   52.4100   -7.3360 C   0  0  0  0  0  0  0  0  0  0  0  0
  2  1  1  0
  3  2  1  0
  4  3  1  0
  5  4  1  0
  6  5  1  0
  7  6  1  0
  8  6  1  0
  8  2  1  0
M  END
$$$$
