
     RDKit          3D

 11 11  0  0  0  0  0  0  0  0999 V2000
   31.8200   43.7100   -6.2600 C   0  0  0  0  0  0  0  0  0  0  0  0
   32.6510   44.9270   -5.8420 C   0  0  0  0  0  0  0  0  0  0  0  0
   33.7530   44.7290   -5.0420 C   0  0  0  0  0  0  0  0  0  0  0  0
   34.0540   43.4370   -4.6320 O   0  0  0  0  0  0  0  0  0  0  0  0
   34.5320   45.7710   -4.6040 C   0  0  0  0  0  0  0  0  0  0  0  0
   34.2150   47.0410   -5.0340 C   0  0  0  0  0  0  0  0  0  0  0  0
   33.1010   47.2360   -5.8610 C   0  0  0  0  0  0  0  0  0  0  0  0
   32.3070   46.1930   -6.2700 C   0  0  0  0  0  0  0  0  0  0  0  0
   31.0590   46.4370   -7.1560 C   0  0  0  0  0  0  0  0  0  0  0  0
   30.0860   47.0670   -6.7140 O   0  0  0  0  0  0  0  0  0  0  0  0
   30.9370   46.0110   -8.3020 O   0  0  0  0  0  0  0  0  0  0  0  0
  2  1  1  0
  3  2  1  0
  4  3  1  0
  5  3  1  0
  6  5  1  0
  7  6  1  0
  8  2  1  0
  8  7  1  0
  9  8  1  0
 10  9  1  0
 11  9  1  0
M  CHG  1  11  -1
M  END
$$$$
