
     RDKit          3D

 22 25  0  0  0  0  0  0  0  0999 V2000
   10.6440   -0.5280   23.1820 N   0  0  0  0  0  0  0  0  0  0  0  0
    6.4980    0.6150   17.4170 N   0  0  0  0  0  0  0  0  0  0  0  0
   11.4980    1.4830   23.7310 N   0  0  0  0  0  0  0  0  0  0  0  0
   10.4240    0.7600   23.6060 C   0  0  0  0  0  0  0  0  0  0  0  0
    7.2280   -0.5300   20.9350 C   0  0  0  0  0  0  0  0  0  0  0  0
   12.5330    0.5830   23.3550 O   0  0  0  0  0  0  0  0  0  0  0  0
    7.7960   -0.4070   25.1800 C   0  0  0  0  0  0  0  0  0  0  0  0
    6.5430    0.1450   19.7730 C   0  0  0  0  0  0  0  0  0  0  0  0
    7.0200   -0.0030   18.4820 C   0  0  0  0  0  0  0  0  0  0  0  0
    5.4460    1.4230   17.6240 C   0  0  0  0  0  0  0  0  0  0  0  0
    4.8940    1.6420   18.8740 C   0  0  0  0  0  0  0  0  0  0  0  0
   12.7460   -1.6960   22.5460 C   0  0  1  0  0  0  0  0  0  0  0  0
    9.0090    1.2210   23.8530 C   0  0  2  0  0  0  0  0  0  0  0  0
    8.5250    0.9330   25.2840 C   0  0  0  0  0  0  0  0  0  0  0  0
   11.9240   -0.5720   23.0420 C   0  0  0  0  0  0  0  0  0  0  0  0
   14.0680   -1.3930   21.9100 C   0  0  0  0  0  0  0  0  0  0  0  0
    8.0960    0.4750   21.6650 C   0  0  0  0  0  0  0  0  0  0  0  0
    8.0670    0.4600   23.0190 N   0  0  0  0  0  0  0  0  0  0  0  0
    8.7590    1.2920   21.0420 O   0  0  0  0  0  0  0  0  0  0  0  0
    7.1160   -0.3250   23.8290 C   0  0  0  0  0  0  0  0  0  0  0  0
    5.4560    0.9920   19.9570 C   0  0  0  0  0  0  0  0  0  0  0  0
   14.0300   -2.0070   23.2540 C   0  0  0  0  0  0  0  0  0  0  0  0
  4  1  1  0
  4  3  2  0
  6  3  1  0
  8  5  1  0
  9  8  1  0
  9  2  2  0
 10  2  1  0
 11 10  2  0
 13  4  1  1
 14 13  1  0
 14  7  1  0
 15  1  2  0
 12 15  1  1
 15  6  1  0
 16 12  1  0
 17  5  1  0
 18 17  1  0
 18 13  1  0
 19 17  2  0
 20 18  1  0
 20  7  1  0
 21 11  1  0
 21  8  2  0
 22 16  1  0
 22 12  1  0
M  END
