
     RDKit          3D

 18 21  0  0  0  0  0  0  0  0999 V2000
    7.2330   58.1410   -6.4690 O   0  0  0  0  0  0  0  0  0  0  0  0
    6.6040   57.1150   -5.7050 C   0  0  2  0  0  0  0  0  0  0  0  0
    7.6670   56.0960   -5.2630 C   0  0  2  0  0  0  0  0  0  0  0  0
    5.5340   56.5100   -6.6050 C   0  0  0  0  0  0  0  0  0  0  0  0
    5.0880   55.1770   -6.1610 N   0  0  0  0  0  0  0  0  0  0  0  0
    6.1430   54.2070   -5.8230 C   0  0  1  0  0  0  0  0  0  0  0  0
    7.5410   54.7920   -6.0680 C   0  0  0  0  0  0  0  0  0  0  0  0
    6.0390   53.7070   -4.3810 C   0  0  0  0  0  0  0  0  0  0  0  0
    6.5390   54.7520   -3.4280 C   0  0  0  0  0  0  0  0  0  0  0  0
    7.3760   55.7510   -3.8280 C   0  0  0  0  0  0  0  0  0  0  0  0
    6.3570   54.8920   -2.0090 C   0  0  0  0  0  0  0  0  0  0  0  0
    7.1320   55.9860   -1.6030 C   0  0  0  0  0  0  0  0  0  0  0  0
    7.8000   56.4830   -2.7240 N   0  0  0  0  0  0  0  0  0  0  0  0
    8.8780   57.4670   -2.6770 C   0  0  0  0  0  0  0  0  0  0  0  0
    7.1360   56.4280   -0.2890 C   0  0  0  0  0  0  0  0  0  0  0  0
    6.3570   55.7520    0.6370 C   0  0  0  0  0  0  0  0  0  0  0  0
    5.6000   54.6540    0.2580 C   0  0  0  0  0  0  0  0  0  0  0  0
    5.5950   54.2170   -1.0580 C   0  0  0  0  0  0  0  0  0  0  0  0
  2  1  1  6
  3  2  1  0
  4  2  1  0
  5  4  1  0
  6  5  1  0
  7  6  1  0
  7  3  1  0
  6  8  1  1
  9  8  1  0
 10  9  2  0
  3 10  1  1
 11  9  1  0
 12 11  2  0
 13 12  1  0
 13 10  1  0
 14 13  1  0
 15 12  1  0
 16 15  2  0
 17 16  1  0
 18 17  2  0
 18 11  1  0
M  END
