
     RDKit          3D

 15 16  0  0  0  0  0  0  0  0999 V2000
    2.9800   52.0410   -2.0660 C   0  0  0  0  0  0  0  0  0  0  0  0
    3.7510   53.2780   -1.9670 N   0  0  0  0  0  0  0  0  0  0  0  0
    2.8490   54.4250   -1.9530 C   0  0  0  0  0  0  0  0  0  0  0  0
    4.5910   53.2600   -0.7650 C   0  0  0  0  0  0  0  0  0  0  0  0
    5.4470   54.4820   -0.5830 C   0  0  0  0  0  0  0  0  0  0  0  0
    5.6020   55.2200    0.5550 C   0  0  0  0  0  0  0  0  0  0  0  0
    6.5100   56.2220    0.3520 N   0  0  0  0  0  0  0  0  0  0  0  0
    6.3130   55.0770   -1.5640 C   0  0  0  0  0  0  0  0  0  0  0  0
    6.9600   56.1600   -0.9430 C   0  0  0  0  0  0  0  0  0  0  0  0
    7.8610   56.9660   -1.6270 C   0  0  0  0  0  0  0  0  0  0  0  0
    8.1230   56.6850   -2.9570 C   0  0  0  0  0  0  0  0  0  0  0  0
    6.5820   54.8080   -2.9030 C   0  0  0  0  0  0  0  0  0  0  0  0
    7.4860   55.6170   -3.5850 C   0  0  0  0  0  0  0  0  0  0  0  0
    7.8750   55.4440   -4.8870 O   0  0  0  0  0  0  0  0  0  0  0  0
    7.3760   54.3090   -5.5930 C   0  0  0  0  0  0  0  0  0  0  0  0
  2  1  1  0
  3  2  1  0
  4  2  1  0
  5  4  1  0
  6  5  2  0
  7  6  1  0
  8  5  1  0
  9  8  2  0
  9  7  1  0
 10  9  1  0
 11 10  2  0
 12  8  1  0
 13 12  2  0
 13 11  1  0
 14 13  1  0
 15 14  1  0
M  END
