
     RDKit          3D

 15 16  0  0  0  0  0  0  0  0999 V2000
    7.7350   -0.5650   -4.8300 C   0  0  0  0  0  0  0  0  0  0  0  0
    6.2130   -2.3860   -5.5540 C   0  0  0  0  0  0  0  0  0  0  0  0
    5.3910   -2.6080   -6.5980 C   0  0  0  0  0  0  0  0  0  0  0  0
    5.4800   -1.4850   -7.4330 C   0  0  0  0  0  0  0  0  0  0  0  0
    4.7230   -1.2460   -8.7620 C   0  0  0  0  0  0  0  0  0  0  0  0
    3.2530   -2.0700  -10.7030 C   0  0  0  0  0  0  0  0  0  0  0  0
    4.1280   -2.4730  -11.8510 C   0  0  2  0  0  0  0  0  0  0  0  0
    3.3990   -2.1090  -13.2940 C   0  0  0  0  0  0  0  0  0  0  0  0
    3.8430   -2.9650  -14.1510 C   0  0  0  0  0  0  0  0  0  0  0  0
    4.3520   -4.2060  -13.3230 C   0  0  0  0  0  0  0  0  0  0  0  0
    6.7710   -1.1980   -5.7450 N   0  0  0  0  0  0  0  0  0  0  0  0
    3.9780   -2.3300   -9.4310 N   0  0  0  0  0  0  0  0  0  0  0  0
    6.3090   -0.6520   -6.8950 N   0  0  0  0  0  0  0  0  0  0  0  0
    4.7360   -0.1580   -9.2190 O   0  0  0  0  0  0  0  0  0  0  0  0
    4.3120   -3.7650  -11.8380 O   0  0  0  0  0  0  0  0  0  0  0  0
  3  2  2  0
  4  3  1  0
  5  4  1  0
  7  6  1  1
  8  7  1  0
  9  8  1  0
 10  9  1  0
 11  2  1  0
 11  1  1  0
 12  6  1  0
 12  5  1  0
 13 11  1  0
 13  4  2  0
 14  5  2  0
 15 10  1  0
 15  7  1  0
M  END
