
     RDKit          3D

 16 18  0  0  0  0  0  0  0  0999 V2000
   27.8860   51.8930   -7.8090 N   0  0  0  0  0  0  0  0  0  0  0  0
   28.4390   50.6660   -7.2450 C   0  0  0  0  0  0  0  0  0  0  0  0
   28.4050   49.4180   -8.0190 C   0  0  0  0  0  0  0  0  0  0  0  0
   27.9230   49.1060   -9.2770 N   0  0  0  0  0  0  0  0  0  0  0  0
   28.1510   47.7930   -9.4980 C   0  0  0  0  0  0  0  0  0  0  0  0
   28.7430   47.3010   -8.4370 N   0  0  0  0  0  0  0  0  0  0  0  0
   28.9000   48.3380   -7.5060 C   0  0  0  0  0  0  0  0  0  0  0  0
   29.4530   48.3810   -6.2360 N   0  0  0  0  0  0  0  0  0  0  0  0
   30.0260   47.1400   -5.6360 C   0  0  0  0  0  0  0  0  0  0  0  0
   31.4920   47.1510   -5.7800 C   0  0  2  0  0  0  0  0  0  0  0  0
   31.8710   47.5120   -7.2630 O   0  0  0  0  0  0  0  0  0  0  0  0
   32.5510   46.5200   -7.7570 C   0  0  0  0  0  0  0  0  0  0  0  0
   32.2440   45.3090   -6.8400 C   0  0  0  0  0  0  0  0  0  0  0  0
   31.9800   45.9200   -5.5170 C   0  0  0  0  0  0  0  0  0  0  0  0
   29.4870   49.5200   -5.5250 C   0  0  0  0  0  0  0  0  0  0  0  0
   28.9690   50.6740   -6.0500 N   0  0  0  0  0  0  0  0  0  0  0  0
  2  1  1  0
  3  2  2  0
  4  3  1  0
  5  4  2  0
  6  5  1  0
  7  6  2  0
  7  3  1  0
  8  7  1  0
  9  8  1  0
 10  9  1  6
 11 10  1  0
 12 11  1  0
 13 12  1  0
 14 13  1  0
 14 10  1  0
 15  8  1  0
 16 15  2  0
 16  2  1  0
M  END
