
     RDKit          3D

 11 11  0  0  0  0  0  0  0  0999 V2000
   28.0130   53.7740   -7.6330 O   0  0  0  0  0  0  0  0  0  0  0  0
   28.5400   53.3850   -6.5410 C   0  0  0  0  0  0  0  0  0  0  0  0
   28.9740   54.0820   -5.5980 O   0  0  0  0  0  0  0  0  0  0  0  0
   28.7940   51.9530   -6.3400 C   0  0  0  0  0  0  0  0  0  0  0  0
   28.5440   51.0610   -7.3590 C   0  0  0  0  0  0  0  0  0  0  0  0
   28.8390   49.7540   -7.1260 C   0  0  0  0  0  0  0  0  0  0  0  0
   29.3760   49.3210   -5.9330 C   0  0  0  0  0  0  0  0  0  0  0  0
   29.6940   47.9680   -5.6990 O   0  0  0  0  0  0  0  0  0  0  0  0
   29.6230   50.1870   -4.9240 C   0  0  0  0  0  0  0  0  0  0  0  0
   29.3340   51.5270   -5.1250 C   0  0  0  0  0  0  0  0  0  0  0  0
   30.1280   49.6620   -3.7530 F   0  0  0  0  0  0  0  0  0  0  0  0
  2  1  1  0
  3  2  2  0
  4  2  1  0
  5  4  2  0
  6  5  1  0
  7  6  2  0
  8  7  1  0
  9  7  1  0
 10  4  1  0
 10  9  2  0
 11  9  1  0
M  END
