
     RDKit          3D

 17 19  0  0  0  0  0  0  0  0999 V2000
    9.6900    1.0270   21.1360 O   0  0  0  0  0  0  0  0  0  0  0  0
    9.2250    0.0440   21.7110 C   0  0  0  0  0  0  0  0  0  0  0  0
    9.9220   -0.6060   22.8730 C   0  0  1  0  0  0  0  0  0  0  0  0
   10.9850   -1.6180   22.4330 C   0  0  0  0  0  0  0  0  0  0  0  0
   12.3190   -0.9060   22.7380 C   0  0  2  0  0  0  0  0  0  0  0  0
   13.4700   -1.0410   21.7960 C   0  0  0  0  0  0  0  0  0  0  0  0
   13.5160   -1.6990   23.1500 C   0  0  0  0  0  0  0  0  0  0  0  0
   12.0600    0.4660   23.4050 C   0  0  0  0  0  0  0  0  0  0  0  0
   10.5810    0.4130   23.8240 C   0  0  0  0  0  0  0  0  0  0  0  0
    8.0640   -0.5440   21.3610 N   0  0  0  0  0  0  0  0  0  0  0  0
    7.2310   -0.0830   20.3200 C   0  0  0  0  0  0  0  0  0  0  0  0
    5.9720    0.4610   20.6320 C   0  0  0  0  0  0  0  0  0  0  0  0
    5.4850    0.5890   22.0550 C   0  0  0  0  0  0  0  0  0  0  0  0
    7.6420   -0.1090   18.9860 C   0  0  0  0  0  0  0  0  0  0  0  0
    6.8990    0.3660   17.9790 N   0  0  0  0  0  0  0  0  0  0  0  0
    5.7010    0.8780   18.2880 C   0  0  0  0  0  0  0  0  0  0  0  0
    5.2050    0.9400   19.5760 C   0  0  0  0  0  0  0  0  0  0  0  0
  2  1  2  0
  3  2  1  6
  4  3  1  0
  5  4  1  6
  6  5  1  0
  7  6  1  0
  7  5  1  0
  8  5  1  0
  9  3  1  0
  9  8  1  0
 10  2  1  0
 11 10  1  0
 12 11  2  0
 13 12  1  0
 14 11  1  0
 15 14  2  0
 16 15  1  0
 17 16  2  0
 17 12  1  0
M  END
