
     RDKit          3D

 17 18  0  0  0  0  0  0  0  0999 V2000
    7.2620   -4.8140   21.5990 N   0  0  0  0  0  0  0  0  0  0  0  0
    7.6060   -2.4880   22.4060 C   0  0  0  0  0  0  0  0  0  0  0  0
    5.7240   -5.2000   19.9980 O   0  0  0  0  0  0  0  0  0  0  0  0
    7.5350   -3.9660   22.7690 C   0  0  1  0  0  0  0  0  0  0  0  0
    7.6970   -4.2590   27.9990 C   0  0  0  0  0  0  0  0  0  0  0  0
    8.6660   -4.0320   27.0120 C   0  0  0  0  0  0  0  0  0  0  0  0
    8.3180   -4.0090   25.6940 C   0  0  0  0  0  0  0  0  0  0  0  0
    6.9750   -4.2180   25.2740 C   0  0  0  0  0  0  0  0  0  0  0  0
    6.6050   -4.4810   20.4760 C   0  0  0  0  0  0  0  0  0  0  0  0
    6.9750   -3.3050   19.5820 C   0  0  0  0  0  0  0  0  0  0  0  0
    6.5440   -4.2140   23.8990 C   0  0  0  0  0  0  0  0  0  0  0  0
    5.2160   -4.4280   23.6170 C   0  0  0  0  0  0  0  0  0  0  0  0
    4.2670   -4.6450   24.6330 C   0  0  0  0  0  0  0  0  0  0  0  0
    4.6510   -4.6540   25.9320 C   0  0  0  0  0  0  0  0  0  0  0  0
    6.0010   -4.4430   26.2940 C   0  0  0  0  0  0  0  0  0  0  0  0
    6.4000   -4.4570   27.6520 C   0  0  0  0  0  0  0  0  0  0  0  0
    8.5420   -3.5490   18.6900 S   0  0  0  0  0  0  0  0  0  0  0  0
  4  1  1  0
  4  2  1  6
  6  5  2  0
  7  6  1  0
  8  7  2  0
  9  3  2  0
  9  1  1  0
 10  9  1  0
 11  8  1  0
 11  4  1  0
 12 11  2  0
 13 12  1  0
 14 13  2  0
 15 14  1  0
 15  8  1  0
 16 15  2  0
 16  5  1  0
 10 17  1  0
M  END
