
     RDKit          3D

 20 20  0  0  0  0  0  0  0  0999 V2000
    7.7310    4.8960   22.5750 C   0  0  0  0  0  0  0  0  0  0  0  0
    7.9820    2.5110   22.4190 N   0  0  0  0  0  0  0  0  0  0  0  0
    6.3070    3.3090   23.6510 O   0  0  0  0  0  0  0  0  0  0  0  0
    7.2850    3.5170   22.9400 C   0  0  0  0  0  0  0  0  0  0  0  0
    9.0820   -0.9280   22.6000 N   0  0  0  0  0  0  0  0  0  0  0  0
    5.7450    0.7640   16.8820 O   0  0  0  0  0  0  0  0  0  0  0  0
    7.8520    1.1410   22.8940 C   0  0  1  0  0  0  0  0  0  0  0  0
    9.8910    0.9460   21.6540 O   0  0  0  0  0  0  0  0  0  0  0  0
    6.5200    0.4990   22.4710 C   0  0  0  0  0  0  0  0  0  0  0  0
    6.2830    0.5590   20.9830 C   0  0  0  0  0  0  0  0  0  0  0  0
    5.4010    1.4770   20.4320 C   0  0  0  0  0  0  0  0  0  0  0  0
    5.2010    1.5550   19.0640 C   0  0  0  0  0  0  0  0  0  0  0  0
    5.8960    0.7000   18.2260 C   0  0  0  0  0  0  0  0  0  0  0  0
    6.7840   -0.2160   18.7530 C   0  0  0  0  0  0  0  0  0  0  0  0
    6.9670   -0.2820   20.1210 C   0  0  0  0  0  0  0  0  0  0  0  0
    9.0430    0.3740   22.3350 C   0  0  0  0  0  0  0  0  0  0  0  0
    9.9780   -1.8100   21.8810 C   0  0  0  0  0  0  0  0  0  0  0  0
   11.3580   -1.6040   22.3250 C   0  0  0  0  0  0  0  0  0  0  0  0
   12.4980   -1.6460   22.7290 C   0  0  0  0  0  0  0  0  0  0  0  0
   14.1920   -1.9600   23.6160 Br  0  0  0  0  0  0  0  0  0  0  0  0
  4  3  2  0
  4  2  1  0
  4  1  1  0
  7  2  1  0
  7  9  1  6
 10  9  1  0
 11 10  2  0
 12 11  1  0
 13 12  2  0
 13  6  1  0
 14 13  1  0
 15 14  2  0
 15 10  1  0
 16  8  2  0
 16  7  1  0
 16  5  1  0
 17  5  1  0
 18 17  1  0
 19 18  3  0
 20 19  1  0
M  END
