
     RDKit          3D

 13 14  0  0  0  0  0  0  0  0999 V2000
   29.8010   56.3350   -8.6350 N   0  0  0  0  0  0  0  0  0  0  0  0
   28.5440   56.0620   -7.5110 S   0  0  2  0  0  0  0  0  0  0  0  0
   27.3060   56.1350   -8.0590 O   0  0  0  0  0  0  0  0  0  0  0  0
   28.7610   57.0010   -6.4950 O   0  0  0  0  0  0  0  0  0  0  0  0
   28.7020   54.3830   -6.9440 C   0  0  1  0  0  0  0  0  0  0  0  0
   29.0070   53.9720   -5.7750 N   0  0  0  0  0  0  0  0  0  0  0  0
   28.9840   52.6750   -5.8190 C   0  0  0  0  0  0  0  0  0  0  0  0
   29.2850   51.7360   -4.8980 C   0  0  0  0  0  0  0  0  0  0  0  0
   29.1380   50.3860   -5.2110 C   0  0  0  0  0  0  0  0  0  0  0  0
   28.7710   50.0020   -6.4580 C   0  0  0  0  0  0  0  0  0  0  0  0
   28.4940   50.9160   -7.4220 C   0  0  0  0  0  0  0  0  0  0  0  0
   28.6080   52.2890   -7.0780 C   0  0  0  0  0  0  0  0  0  0  0  0
   28.4480   53.3960   -7.7100 N   0  0  0  0  0  0  0  0  0  0  0  0
  2  1  1  6
  3  2  1  0
  4  2  1  0
  5  2  1  0
  5  6  1  1
  7  6  1  0
  8  7  1  0
  9  8  1  0
 10  9  1  0
 11 10  1  0
 12 11  1  0
 12  7  1  0
 13 12  1  0
 13  5  1  0
M  END
$$$$
