
     RDKit          3D

 19 20  0  0  0  0  0  0  0  0999 V2000
    7.4180   -0.5200   20.8900 N   0  0  0  0  0  0  0  0  0  0  0  0
    8.2560   -0.5180   23.9420 C   0  0  0  0  0  0  0  0  0  0  0  0
    9.0470    1.0380   21.0750 O   0  0  0  0  0  0  0  0  0  0  0  0
   13.9910   -1.7560   21.2470 Cl  0  0  0  0  0  0  0  0  0  0  0  0
    9.0600   -0.7740   22.6660 C   0  0  1  0  0  0  0  0  0  0  0  0
    6.5350    0.5870   17.4810 N   0  0  0  0  0  0  0  0  0  0  0  0
    8.5130    0.0110   21.4720 C   0  0  0  0  0  0  0  0  0  0  0  0
   12.3300    0.8430   23.7700 N   0  0  0  0  0  0  0  0  0  0  0  0
    6.7130    0.0900   19.8270 C   0  0  0  0  0  0  0  0  0  0  0  0
    7.1710    0.0210   18.5110 C   0  0  0  0  0  0  0  0  0  0  0  0
    5.3940    1.2360   17.7420 C   0  0  0  0  0  0  0  0  0  0  0  0
    4.8670    1.3740   19.0100 C   0  0  0  0  0  0  0  0  0  0  0  0
    5.5290    0.8080   20.0950 C   0  0  2  0  0  0  0  0  0  0  0  0
    5.0450    1.0540   21.5010 C   0  0  0  0  0  0  0  0  0  0  0  0
   10.5490   -0.4780   22.8120 C   0  0  0  0  0  0  0  0  0  0  0  0
   11.0350    0.5140   23.6540 C   0  0  0  0  0  0  0  0  0  0  0  0
   13.2160    0.1710   23.0240 C   0  0  0  0  0  0  0  0  0  0  0  0
   12.8200   -0.8560   22.1730 C   0  0  0  0  0  0  0  0  0  0  0  0
   11.4850   -1.1820   22.0650 C   0  0  0  0  0  0  0  0  0  0  0  0
  5  2  1  1
  7  3  1  0
  7  1  1  0
  7  5  1  0
  9  1  1  0
 10  9  1  0
 10  6  1  0
 11  6  1  0
 12 11  1  0
 13 12  1  0
 13  9  1  0
 13 14  1  1
 15  5  1  0
 16 15  1  0
 16  8  1  0
 17  8  1  0
 18  4  1  0
 18 17  1  0
 19 15  1  0
 19 18  1  0
M  END
$$$$
