
     RDKit          3D

 17 19  0  0  0  0  0  0  0  0999 V2000
    6.7740    0.3930   18.0700 N   0  0  0  0  0  0  0  0  0  0  0  0
    4.8590    1.0870   21.8780 C   0  0  0  0  0  0  0  0  0  0  0  0
    9.8240    0.4940   21.0190 O   0  0  0  0  0  0  0  0  0  0  0  0
    5.5510    0.8740   20.5560 C   0  0  0  0  0  0  0  0  0  0  0  0
    7.6600    0.4030   21.6720 N   0  0  0  0  0  0  0  0  0  0  0  0
    4.8690    1.0610   19.3580 C   0  0  0  0  0  0  0  0  0  0  0  0
    5.5120    0.8240   18.1590 C   0  0  0  0  0  0  0  0  0  0  0  0
    7.4450    0.2220   19.2140 C   0  0  0  0  0  0  0  0  0  0  0  0
    6.9020    0.4820   20.4760 C   0  0  0  0  0  0  0  0  0  0  0  0
    8.9790    0.1790   21.8430 C   0  0  0  0  0  0  0  0  0  0  0  0
    9.3500   -0.3770   23.2000 C   0  0  1  0  0  0  0  0  0  0  0  0
    8.9330   -1.8250   23.5120 C   0  0  0  0  0  0  0  0  0  0  0  0
   10.3160   -2.0670   24.1410 C   0  0  0  0  0  0  0  0  0  0  0  0
   10.8420   -0.8170   23.3940 C   0  0  2  0  0  0  0  0  0  0  0  0
   11.8840    0.1120   24.0770 C   0  0  0  0  0  0  0  0  0  0  0  0
   12.7490    0.0600   22.8160 C   0  0  0  0  0  0  0  0  0  0  0  0
   11.9080   -1.1030   22.2950 C   0  0  0  0  0  0  0  0  0  0  0  0
  4  2  1  0
  6  4  2  0
  7  6  1  0
  7  1  2  0
  8  1  1  0
  9  8  2  0
  9  5  1  0
  9  4  1  0
 10  5  1  0
 10  3  2  0
 11 10  1  6
 12 11  1  0
 13 12  1  0
 14 13  1  1
 14 11  1  0
 15 14  1  0
 16 15  1  0
 17 14  1  0
 17 16  1  0
M  END
