
     RDKit          3D

 10 10  0  0  0  0  0  0  0  0999 V2000
   28.1230   55.9650   -9.3140 N   0  0  0  0  0  0  0  0  0  0  0  0
   27.9110   54.7350   -8.5430 C   0  0  0  0  0  0  0  0  0  0  0  0
   29.2240   53.9940   -8.3760 C   0  0  0  0  0  0  0  0  0  0  0  0
   29.0890   52.7840   -7.5410 N   0  0  0  0  0  0  0  0  0  0  0  0
   28.9240   51.5590   -8.1190 C   0  0  0  0  0  0  0  0  0  0  0  0
   28.8110   50.4520   -7.3660 C   0  0  0  0  0  0  0  0  0  0  0  0
   28.8220   50.5550   -5.9670 C   0  0  0  0  0  0  0  0  0  0  0  0
   28.9450   51.7600   -5.3750 C   0  0  0  0  0  0  0  0  0  0  0  0
   29.0970   52.9510   -6.1450 C   0  0  0  0  0  0  0  0  0  0  0  0
   29.2300   54.0890   -5.6660 O   0  0  0  0  0  0  0  0  0  0  0  0
  2  1  1  0
  3  2  1  0
  4  3  1  0
  5  4  1  0
  6  5  1  0
  7  6  1  0
  8  7  1  0
  9  4  1  0
  9  8  1  0
 10  9  1  0
M  END
$$$$
