
     RDKit          3D

 13 13  0  0  0  0  0  0  0  0999 V2000
    8.0380   -2.6640   21.4650 N   0  0  0  0  0  0  0  0  0  0  0  0
    3.7310   -3.7870   23.6170 C   0  0  0  0  0  0  0  0  0  0  0  0
    4.8090   -2.8880   23.9080 O   0  0  0  0  0  0  0  0  0  0  0  0
    5.7900   -2.7460   22.9890 C   0  0  0  0  0  0  0  0  0  0  0  0
    6.1310   -5.0720   19.6910 N   0  0  0  0  0  0  0  0  0  0  0  0
    9.0790   -1.3480   23.0560 O   0  0  0  0  0  0  0  0  0  0  0  0
    6.8390   -1.9300   23.3980 C   0  0  0  0  0  0  0  0  0  0  0  0
    5.7950   -3.4360   21.8530 N   0  0  0  0  0  0  0  0  0  0  0  0
    7.9720   -1.9720   22.5940 C   0  0  0  0  0  0  0  0  0  0  0  0
   10.2690   -1.4010   22.2580 C   0  0  0  0  0  0  0  0  0  0  0  0
    6.9360   -3.3640   21.1380 C   0  0  0  0  0  0  0  0  0  0  0  0
    7.0280   -4.1620   19.8590 C   0  0  0  0  0  0  0  0  0  0  0  0
    8.4210   -3.6770   18.7480 S   0  0  0  0  0  0  0  0  0  0  0  0
  3  2  1  0
  4  3  1  0
  7  4  2  0
  8  4  1  0
  9  1  2  0
  9  7  1  0
  9  6  1  0
 10  6  1  0
 11  1  1  0
 11  8  2  0
 12 11  1  0
 12  5  2  0
 12 13  1  0
M  END
