
     RDKit          3D

  9  9  0  0  0  0  0  0  0  0999 V2000
    6.1310   -5.1170   19.7510 N   0  0  0  0  0  0  0  0  0  0  0  0
    6.8810   -4.0870   19.9340 C   0  0  0  0  0  0  0  0  0  0  0  0
    6.6060   -3.2580   21.1670 C   0  0  0  0  0  0  0  0  0  0  0  0
    5.4000   -3.3640   21.7560 N   0  0  0  0  0  0  0  0  0  0  0  0
    5.2080   -2.6440   22.8720 C   0  0  0  0  0  0  0  0  0  0  0  0
    7.6040   -2.4760   21.6150 N   0  0  0  0  0  0  0  0  0  0  0  0
    6.1640   -1.8040   23.4040 C   0  0  0  0  0  0  0  0  0  0  0  0
    7.3620   -1.7620   22.7280 C   0  0  0  0  0  0  0  0  0  0  0  0
    8.2780   -3.6350   18.8600 S   0  0  0  0  0  0  0  0  0  0  0  0
  2  1  2  0
  3  2  1  0
  4  3  2  0
  5  4  1  0
  6  3  1  0
  7  5  2  0
  8  6  2  0
  8  7  1  0
  2  9  1  0
M  END
