
     RDKit          3D

 28 31  0  0  0  0  0  0  0  0999 V2000
    9.1200    1.4200   20.9890 O   0  0  0  0  0  0  0  0  0  0  0  0
    8.8950    0.3770   21.5850 C   0  0  0  0  0  0  0  0  0  0  0  0
    9.2950    0.1760   22.8760 N   0  0  0  0  0  0  0  0  0  0  0  0
    9.7090    1.3540   23.6320 C   0  0  0  0  0  0  0  0  0  0  0  0
   11.1790    1.6490   23.4680 C   0  0  0  0  0  0  0  0  0  0  0  0
   11.7480    2.8860   23.0460 C   0  0  0  0  0  0  0  0  0  0  0  0
   13.1210    2.8330   22.9230 C   0  0  0  0  0  0  0  0  0  0  0  0
   13.7070    1.2700   23.3330 S   0  0  0  0  0  0  0  0  0  0  0  0
   12.1330    0.6940   23.6600 C   0  0  0  0  0  0  0  0  0  0  0  0
    9.1800   -1.0660   23.5680 C   0  0  0  0  0  0  0  0  0  0  0  0
    8.9110   -1.1020   24.9310 C   0  0  0  0  0  0  0  0  0  0  0  0
    8.8380   -2.3100   25.6030 C   0  0  0  0  0  0  0  0  0  0  0  0
    9.5800   -2.2370   22.9380 C   0  0  0  0  0  0  0  0  0  0  0  0
    9.5370   -3.4450   23.6090 C   0  0  0  0  0  0  0  0  0  0  0  0
    9.1610   -3.5070   24.9560 C   0  0  0  0  0  0  0  0  0  0  0  0
    9.1470   -4.7040   25.6310 N   0  0  0  0  0  0  0  0  0  0  0  0
    8.2190   -4.9280   26.7310 C   0  0  0  0  0  0  0  0  0  0  0  0
    9.5160   -5.9310   24.9510 C   0  0  0  0  0  0  0  0  0  0  0  0
    8.0590   -0.7220   20.9250 C   0  0  0  0  0  0  0  0  0  0  0  0
    7.1920   -0.1800   19.8990 N   0  0  0  0  0  0  0  0  0  0  0  0
    6.0420    0.5380   20.0270 C   0  0  0  0  0  0  0  0  0  0  0  0
    5.2730    0.9280   21.1130 C   0  0  0  0  0  0  0  0  0  0  0  0
    4.1380    1.6830   20.8550 C   0  0  0  0  0  0  0  0  0  0  0  0
    3.7960    2.0440   19.5530 C   0  0  0  0  0  0  0  0  0  0  0  0
    4.5780    1.6530   18.4740 C   0  0  0  0  0  0  0  0  0  0  0  0
    5.7110    0.8840   18.7210 C   0  0  0  0  0  0  0  0  0  0  0  0
    6.6580    0.3600   17.8730 N   0  0  0  0  0  0  0  0  0  0  0  0
    7.5340   -0.2810   18.5900 N   0  0  0  0  0  0  0  0  0  0  0  0
  2  1  2  0
  3  2  1  0
  4  3  1  0
  5  4  1  0
  6  5  1  0
  7  6  2  0
  8  7  1  0
  9  8  1  0
  9  5  2  0
 10  3  1  0
 11 10  2  0
 12 11  1  0
 13 10  1  0
 14 13  2  0
 15 14  1  0
 15 12  2  0
 16 15  1  0
 17 16  1  0
 18 16  1  0
 19  2  1  0
 20 19  1  0
 21 20  1  0
 22 21  2  0
 23 22  1  0
 24 23  2  0
 25 24  1  0
 26 25  2  0
 26 21  1  0
 27 26  1  0
 28 27  2  0
 28 20  1  0
M  END
