
     RDKit          3D

 29 32  0  0  0  0  0  0  0  0999 V2000
    8.0820   -4.8880   26.0370 N   0  0  0  0  0  0  0  0  0  0  0  0
    7.2170   -4.7680   27.2040 C   0  0  0  0  0  0  0  0  0  0  0  0
    9.1590    1.0210   21.1130 O   0  0  0  0  0  0  0  0  0  0  0  0
    9.1200   -5.8910   26.2260 C   0  0  0  0  0  0  0  0  0  0  0  0
    9.2900   -0.3960   22.8740 N   0  0  0  0  0  0  0  0  0  0  0  0
    8.3040   -3.8040   25.2000 C   0  0  0  0  0  0  0  0  0  0  0  0
    6.5240    0.3910   17.6470 N   0  0  0  0  0  0  0  0  0  0  0  0
    7.7170   -2.5550   25.4580 C   0  0  0  0  0  0  0  0  0  0  0  0
    7.9910   -1.4610   24.6560 C   0  0  0  0  0  0  0  0  0  0  0  0
    8.8700   -1.5730   23.5810 C   0  0  2  0  0  0  0  0  0  0  0  0
    9.4380   -2.8130   23.2960 C   0  0  0  0  0  0  0  0  0  0  0  0
    9.1580   -3.9140   24.0900 C   0  0  0  0  0  0  0  0  0  0  0  0
   10.3120    0.4440   23.4910 C   0  0  0  0  0  0  0  0  0  0  0  0
   11.7150    0.0360   23.1220 C   0  0  0  0  0  0  0  0  0  0  0  0
   12.9090    0.4890   23.7480 C   0  0  0  0  0  0  0  0  0  0  0  0
   14.0300   -0.0970   23.2430 C   0  0  0  0  0  0  0  0  0  0  0  0
   11.9740   -0.8820   22.1450 C   0  0  0  0  0  0  0  0  0  0  0  0
    8.8000   -0.0150   21.6560 C   0  0  0  0  0  0  0  0  0  0  0  0
    7.7970   -0.9270   20.9730 C   0  0  0  0  0  0  0  0  0  0  0  0
    6.9410   -0.1990   19.9550 C   0  0  0  0  0  0  0  0  0  0  0  0
    7.2340   -0.2210   18.6060 C   0  0  0  0  0  0  0  0  0  0  0  0
    5.4570    1.0850   18.0230 C   0  0  0  0  0  0  0  0  0  0  0  0
    5.0380    1.2210   19.3670 C   0  0  0  0  0  0  0  0  0  0  0  0
    3.9230    2.0010   19.7630 C   0  0  0  0  0  0  0  0  0  0  0  0
    3.5780    2.0980   21.0800 C   0  0  0  0  0  0  0  0  0  0  0  0
    4.3040    1.4270   22.0520 C   0  0  0  0  0  0  0  0  0  0  0  0
    5.3900    0.6710   21.7130 C   0  0  0  0  0  0  0  0  0  0  0  0
    5.8000    0.5480   20.3600 C   0  0  0  0  0  0  0  0  0  0  0  0
   13.6380   -1.2160   21.9860 S   0  0  0  0  0  0  0  0  0  0  0  0
  2  1  1  0
  4  1  1  0
  6  1  1  0
  8  6  1  0
  9  8  1  0
 10  9  1  0
 10  5  1  1
 11 10  1  0
 12 11  1  0
 12  6  1  0
 13  5  1  0
 14 13  1  0
 15 14  1  0
 16 15  1  0
 17 14  1  0
 18  3  1  0
 18  5  1  0
 19 18  1  0
 20 19  1  0
 21 20  1  0
 21  7  1  0
 22  7  1  0
 23 22  1  0
 24 23  1  0
 25 24  1  0
 26 25  1  0
 27 26  1  0
 28 27  1  0
 28 23  1  0
 28 20  1  0
 29 17  1  0
 29 16  1  0
M  END
$$$$
