
     RDKit          3D

 13 13  0  0  0  0  0  0  0  0999 V2000
    6.5650   -5.0400   26.5740 C   0  0  0  0  0  0  0  0  0  0  0  0
    9.4510   -3.1150   24.1690 C   0  0  0  0  0  0  0  0  0  0  0  0
    9.3510   -1.8310   23.3570 C   0  0  0  0  0  0  0  0  0  0  0  0
   10.7480   -1.2320   23.4040 C   0  0  0  0  0  0  0  0  0  0  0  0
   11.0590   -0.1920   24.2710 C   0  0  0  0  0  0  0  0  0  0  0  0
   12.3510    0.3080   24.2960 C   0  0  0  0  0  0  0  0  0  0  0  0
   13.3280   -0.2450   23.4840 C   0  0  0  0  0  0  0  0  0  0  0  0
   13.0140   -1.2930   22.6280 C   0  0  0  0  0  0  0  0  0  0  0  0
   11.7240   -1.7830   22.5970 C   0  0  0  0  0  0  0  0  0  0  0  0
    8.1960   -3.6200   24.6640 N   0  0  0  0  0  0  0  0  0  0  0  0
    9.2100   -5.5390   26.1600 O   0  0  0  0  0  0  0  0  0  0  0  0
    8.7770   -3.6120   27.2020 O   0  0  0  0  0  0  0  0  0  0  0  0
    8.2270   -4.4510   26.1510 S   0  0  2  0  0  0  0  0  0  0  0  0
  3  2  1  0
  4  3  1  0
  5  4  2  0
  6  5  1  0
  7  6  2  0
  8  7  1  0
  9  4  1  0
  9  8  2  0
 10  2  1  0
 13 11  2  0
 13 12  2  0
 13 10  1  0
 13  1  1  1
M  END
