
     RDKit          3D

 20 22  0  0  0  0  0  0  0  0999 V2000
    6.8110   -0.3680   21.5820 N   0  0  0  0  0  0  0  0  0  0  0  0
   12.6550   -0.9350   22.2690 C   0  0  1  0  0  0  0  0  0  0  0  0
    8.7320    0.6430   20.8810 O   0  0  0  0  0  0  0  0  0  0  0  0
   13.9370   -1.6840   21.3560 Cl  0  0  0  0  0  0  0  0  0  0  0  0
   12.9370    0.1490   23.0780 C   0  0  0  0  0  0  0  0  0  0  0  0
    5.2170    1.3490   17.5670 N   0  0  0  0  0  0  0  0  0  0  0  0
   11.8880    0.7800   23.7280 C   0  0  0  0  0  0  0  0  0  0  0  0
    6.3190    0.5860   17.3000 N   0  0  0  0  0  0  0  0  0  0  0  0
   10.5860    0.3330   23.5470 C   0  0  0  0  0  0  0  0  0  0  0  0
   10.3160   -0.7560   22.7260 C   0  0  1  0  0  0  0  0  0  0  0  0
    8.8980   -1.1920   22.4340 C   0  0  0  0  0  0  0  0  0  0  0  0
    8.1540   -0.2240   21.5360 C   0  0  1  0  0  0  0  0  0  0  0  0
    5.8320    0.4130   20.9190 C   0  0  0  0  0  0  0  0  0  0  0  0
    4.8080    1.0420   21.6360 C   0  0  0  0  0  0  0  0  0  0  0  0
    3.8560    1.8110   20.9840 C   0  0  0  0  0  0  0  0  0  0  0  0
    3.9070    1.9800   19.6090 C   0  0  0  0  0  0  0  0  0  0  0  0
    4.9200    1.3530   18.8940 C   0  0  0  0  0  0  0  0  0  0  0  0
    6.7250    0.1120   18.4620 C   0  0  0  0  0  0  0  0  0  0  0  0
    5.8960    0.5550   19.5220 C   0  0  0  0  0  0  0  0  0  0  0  0
   11.3720   -1.4090   22.1100 C   0  0  0  0  0  0  0  0  0  0  0  0
  2  4  1  6
  5  2  1  0
  7  5  1  0
  8  6  1  0
  9  7  1  0
 10  9  1  0
 10 11  1  6
 12  3  1  1
 12  1  1  0
 12 11  1  0
 13  1  1  0
 14 13  1  0
 15 14  1  0
 16 15  1  0
 17 16  1  0
 17  6  1  0
 18  8  1  0
 19 17  1  0
 19 18  1  0
 19 13  1  0
 20 10  1  0
 20  2  1  0
M  END
$$$$
