
     RDKit          3D

 19 21  0  0  0  0  0  0  0  0999 V2000
   13.8070   -1.6340   21.2270 Cl  0  0  0  0  0  0  0  0  0  0  0  0
   12.7090   -0.9540   22.3960 C   0  0  0  0  0  0  0  0  0  0  0  0
   12.9850    0.2830   22.9410 C   0  0  0  0  0  0  0  0  0  0  0  0
   12.1380    0.7830   23.9170 C   0  0  0  0  0  0  0  0  0  0  0  0
   11.0400    0.0470   24.3320 C   0  0  0  0  0  0  0  0  0  0  0  0
   11.6110   -1.6930   22.7900 C   0  0  0  0  0  0  0  0  0  0  0  0
   10.7650   -1.1960   23.7760 C   0  0  0  0  0  0  0  0  0  0  0  0
    9.5800   -2.0050   24.2460 C   0  0  0  0  0  0  0  0  0  0  0  0
    8.8680   -2.6550   23.1400 N   0  0  0  0  0  0  0  0  0  0  0  0
    7.8590   -3.6520   23.5690 C   0  0  2  0  0  0  0  0  0  0  0  0
    7.6980   -4.5850   22.3710 C   0  0  0  0  0  0  0  0  0  0  0  0
    8.1300   -1.7140   22.2800 C   0  0  0  0  0  0  0  0  0  0  0  0
    6.7970   -2.4270   22.0760 C   0  0  2  0  0  0  0  0  0  0  0  0
    6.5340   -2.8840   23.5130 C   0  0  0  0  0  0  0  0  0  0  0  0
    7.0380   -3.7140   21.3960 N   0  0  0  0  0  0  0  0  0  0  0  0
    6.6600   -4.0430   20.1440 C   0  0  0  0  0  0  0  0  0  0  0  0
    6.2200   -5.1510   19.8990 O   0  0  0  0  0  0  0  0  0  0  0  0
    6.7510   -2.9830   19.0630 C   0  0  0  0  0  0  0  0  0  0  0  0
    8.4140   -3.3570   18.5780 S   0  0  0  0  0  0  0  0  0  0  0  0
  2  1  1  0
  3  2  2  0
  4  3  1  0
  5  4  2  0
  6  2  1  0
  7  6  2  0
  7  5  1  0
  8  7  1  0
  9  8  1  0
 10  9  1  0
 10 11  1  6
 12  9  1  0
 13 12  1  1
 14 13  1  0
 14 10  1  0
 15 13  1  0
 15 11  1  0
 16 15  1  0
 17 16  2  0
 18 16  1  0
 18 19  1  0
M  END
