
     RDKit          3D

 13 14  0  0  0  0  0  0  0  0999 V2000
   23.7380   49.1880   11.1020 O   0  0  0  0  0  0  0  0  0  0  0  0
   23.8640   48.1840   10.2720 C   0  0  1  0  0  0  0  0  0  0  0  0
   24.4420   47.1830   10.5530 O   0  0  0  0  0  0  0  0  0  0  0  0
   23.1610   48.3220    8.9420 C   0  0  2  0  0  0  0  0  0  0  0  0
   21.2180   47.1350   11.3910 C   0  0  0  0  0  0  0  0  0  0  0  0
   20.9260   45.9830   12.0640 C   0  0  0  0  0  0  0  0  0  0  0  0
   21.0570   45.6700    9.6290 C   0  0  0  0  0  0  0  0  0  0  0  0
   23.2660   49.7030    8.2700 C   0  0  0  0  0  0  0  0  0  0  0  0
   21.9530   50.4140    8.5820 C   0  0  0  0  0  0  0  0  0  0  0  0
   21.3040   46.9640    9.9790 C   0  0  0  0  0  0  0  0  0  0  0  0
   21.6520   48.0420    8.9900 C   0  0  1  0  0  0  0  0  0  0  0  0
   20.7430   44.6950   10.9770 S   0  0  0  0  0  0  0  0  0  0  0  0
   21.0520   49.4180    9.2990 C   0  0  0  0  0  0  0  0  0  0  0  0
  2  1  1  1
  3  2  1  0
  4  2  1  0
  6  5  1  0
  4  8  1  1
  9  8  1  0
 10  7  1  0
 10  5  1  0
 11 10  1  1
 11  4  1  0
 12  7  1  0
 12  6  1  0
 13 11  1  0
 13  9  1  0
M  END
$$$$
