
     RDKit          3D

 14 15  0  0  0  0  0  0  0  0999 V2000
   23.6370   -8.0850    5.7580 C   0  0  0  0  0  0  0  0  0  0  0  0
   24.3870   -6.8070    6.1260 C   0  0  0  0  0  0  0  0  0  0  0  0
   25.7580   -6.7870    6.1360 C   0  0  0  0  0  0  0  0  0  0  0  0
   26.4950   -7.9840    5.7930 C   0  0  0  0  0  0  0  0  0  0  0  0
   25.7680   -9.2390    5.4350 C   0  0  0  0  0  0  0  0  0  0  0  0
   26.5680  -10.4870    5.0900 C   0  0  0  0  0  0  0  0  0  0  0  0
   27.9020  -10.5890    6.9420 C   0  0  0  0  0  0  0  0  0  0  0  0
   28.3680  -11.3720    8.1570 C   0  0  0  0  0  0  0  0  0  0  0  0
   27.4810  -13.3370    7.1170 C   0  0  0  0  0  0  0  0  0  0  0  0
   27.2730  -12.5050    5.8630 C   0  0  0  0  0  0  0  0  0  0  0  0
   24.3580   -9.2600    5.4230 C   0  0  0  0  0  0  0  0  0  0  0  0
   26.9160  -11.1740    6.1930 N   0  0  0  0  0  0  0  0  0  0  0  0
   28.3360  -12.7930    8.0340 O   0  0  0  0  0  0  0  0  0  0  0  0
   21.8520   -8.0630    5.7710 Cl  0  0  0  0  0  0  0  0  0  0  0  0
  2  1  2  0
  3  2  1  0
  4  3  2  0
  5  4  1  0
  6  5  1  0
  8  7  1  0
 10  9  1  0
 11  5  2  0
 11  1  1  0
 12  6  1  0
 12 10  1  0
 12  7  1  0
 13  9  1  0
 13  8  1  0
 14  1  1  0
M  END
