
     RDKit          3D

 30 33  0  0  0  0  0  0  0  0999 V2000
    6.9570   -5.6490   28.0710 N   0  0  0  0  0  0  0  0  0  0  0  0
    5.8910   -5.9660   29.0050 C   0  0  0  0  0  0  0  0  0  0  0  0
    5.6810   -4.3210   26.7740 O   0  0  0  0  0  0  0  0  0  0  0  0
    6.7720   -4.8330   27.0200 C   0  0  0  0  0  0  0  0  0  0  0  0
    7.9000   -4.6410   26.2650 N   0  0  0  0  0  0  0  0  0  0  0  0
    9.4410    1.0010   21.1730 O   0  0  0  0  0  0  0  0  0  0  0  0
    8.1590   -3.6100   25.3310 C   0  0  0  0  0  0  0  0  0  0  0  0
    9.4800   -0.3580   22.9960 N   0  0  0  0  0  0  0  0  0  0  0  0
    9.2250   -3.7670   24.4490 C   0  0  0  0  0  0  0  0  0  0  0  0
    7.3140   -0.2890   20.0340 N   0  0  0  0  0  0  0  0  0  0  0  0
    9.6290   -2.7150   23.6460 C   0  0  0  0  0  0  0  0  0  0  0  0
    7.7370   -0.3730   18.7470 N   0  0  0  0  0  0  0  0  0  0  0  0
    8.9780   -1.4850   23.7200 C   0  0  0  0  0  0  0  0  0  0  0  0
    6.8840    0.2440   17.9810 N   0  0  0  0  0  0  0  0  0  0  0  0
    7.8860   -1.3390   24.5780 C   0  0  0  0  0  0  0  0  0  0  0  0
    7.4790   -2.3960   25.3730 C   0  0  0  0  0  0  0  0  0  0  0  0
   10.5290    0.4450   23.6130 C   0  0  0  0  0  0  0  0  0  0  0  0
   11.7960   -0.3400   23.8260 C   0  0  0  0  0  0  0  0  0  0  0  0
   12.3020   -0.8230   25.0690 C   0  0  0  0  0  0  0  0  0  0  0  0
   13.3950   -1.6480   24.9330 C   0  0  0  0  0  0  0  0  0  0  0  0
   12.5280   -0.7930   22.7690 C   0  0  0  0  0  0  0  0  0  0  0  0
    9.0530   -0.0130   21.7470 C   0  0  0  0  0  0  0  0  0  0  0  0
    8.0480   -0.9540   21.0860 C   0  0  0  0  0  0  0  0  0  0  0  0
    5.8870    0.7600   18.7780 C   0  0  0  0  0  0  0  0  0  0  0  0
    4.7800    1.5490   18.4730 C   0  0  0  0  0  0  0  0  0  0  0  0
    3.9660    1.9790   19.5150 C   0  0  0  0  0  0  0  0  0  0  0  0
    4.2470    1.6330   20.8350 C   0  0  0  0  0  0  0  0  0  0  0  0
    5.3450    0.8410   21.1470 C   0  0  0  0  0  0  0  0  0  0  0  0
    6.1550    0.4220   20.1000 C   0  0  0  0  0  0  0  0  0  0  0  0
   13.7970   -1.8060   23.2630 S   0  0  0  0  0  0  0  0  0  0  0  0
  2  1  1  0
  4  1  1  0
  4  3  2  0
  5  4  1  0
  7  5  1  0
  9  7  2  0
 11  9  1  0
 12 10  1  0
 13 11  2  0
 13  8  1  0
 14 12  2  0
 15 13  1  0
 16 15  2  0
 16  7  1  0
 17  8  1  0
 18 17  1  0
 19 18  1  0
 20 19  2  0
 21 18  2  0
 22  6  2  0
 22  8  1  0
 23 22  1  0
 23 10  1  0
 24 14  1  0
 25 24  2  0
 26 25  1  0
 27 26  2  0
 28 27  1  0
 29 28  2  0
 29 24  1  0
 29 10  1  0
 30 21  1  0
 30 20  1  0
M  END
