
     RDKit          3D

 13 13  0  0  0  0  0  0  0  0999 V2000
    6.2620   -3.8630   19.8610 O   0  0  0  0  0  0  0  0  0  0  0  0
    7.1230   -3.4170   20.6050 C   0  0  0  0  0  0  0  0  0  0  0  0
    8.5320   -3.1550   20.1110 C   0  0  0  0  0  0  0  0  0  0  0  0
    6.8820   -3.1240   21.8990 N   0  0  0  0  0  0  0  0  0  0  0  0
    5.8870   -3.8350   22.7120 C   0  0  0  0  0  0  0  0  0  0  0  0
    6.5430   -4.3870   23.9750 C   0  0  0  0  0  0  0  0  0  0  0  0
    7.2020   -3.3050   24.7320 N   0  0  0  0  0  0  0  0  0  0  0  0
    8.2340   -2.6710   23.8920 C   0  0  0  0  0  0  0  0  0  0  0  0
    7.6070   -2.0810   22.6360 C   0  0  0  0  0  0  0  0  0  0  0  0
    7.7530   -3.7860   25.9960 C   0  0  0  0  0  0  0  0  0  0  0  0
    8.7800   -4.8250   25.8600 C   0  0  0  0  0  0  0  0  0  0  0  0
    9.5990   -5.6560   25.7040 C   0  0  0  0  0  0  0  0  0  0  0  0
    8.6200   -3.1430   18.3100 S   0  0  0  0  0  0  0  0  0  0  0  0
  2  1  2  0
  3  2  1  0
  4  2  1  0
  5  4  1  0
  6  5  1  0
  7  6  1  0
  8  7  1  0
  9  8  1  0
  9  4  1  0
 10  7  1  0
 11 10  1  0
 12 11  3  0
  3 13  1  0
M  END
