
     RDKit          3D

 24 27  0  0  0  0  0  0  0  0999 V2000
    7.6370   -0.7310   20.6450 N   0  0  0  0  0  0  0  0  0  0  0  0
   12.8590   -0.9530   22.0390 C   0  0  0  0  0  0  0  0  0  0  0  0
   10.2040    0.7400   24.6770 O   0  0  0  0  0  0  0  0  0  0  0  0
   14.0220   -1.7210   20.9960 Cl  0  0  0  0  0  0  0  0  0  0  0  0
   13.3000   -0.0760   23.0050 C   0  0  0  0  0  0  0  0  0  0  0  0
    6.3110    0.5830   17.4750 N   0  0  0  0  0  0  0  0  0  0  0  0
    9.0840    0.9590   21.0570 O   0  0  0  0  0  0  0  0  0  0  0  0
   12.3820    0.4880   23.8720 C   0  0  0  0  0  0  0  0  0  0  0  0
   11.0350    0.1810   23.7390 C   0  0  0  0  0  0  0  0  0  0  0  0
    8.8040    0.8110   24.3230 C   0  0  0  0  0  0  0  0  0  0  0  0
    8.2910   -0.5080   23.8040 C   0  0  0  0  0  0  0  0  0  0  0  0
    9.0950   -0.9320   22.5650 C   0  0  1  0  0  0  0  0  0  0  0  0
    8.6080   -0.1320   21.3550 C   0  0  0  0  0  0  0  0  0  0  0  0
    6.7150   -0.1930   19.7380 C   0  0  2  0  0  0  0  0  0  0  0  0
    7.0020   -0.1270   18.3750 C   0  0  0  0  0  0  0  0  0  0  0  0
    5.2470    1.2520   17.9050 C   0  0  0  0  0  0  0  0  0  0  0  0
    4.8260    1.2880   19.2570 C   0  0  0  0  0  0  0  0  0  0  0  0
    3.6800    2.0000   19.6920 C   0  0  0  0  0  0  0  0  0  0  0  0
    3.3180    1.9960   21.0080 C   0  0  0  0  0  0  0  0  0  0  0  0
    4.0660    1.2990   21.9440 C   0  0  0  0  0  0  0  0  0  0  0  0
    5.1780    0.5980   21.5680 C   0  0  0  0  0  0  0  0  0  0  0  0
    5.5940    0.5610   20.2090 C   0  0  0  0  0  0  0  0  0  0  0  0
   10.5790   -0.6770   22.7350 C   0  0  0  0  0  0  0  0  0  0  0  0
   11.5210   -1.2560   21.8880 C   0  0  0  0  0  0  0  0  0  0  0  0
  4  2  1  0
  5  2  1  0
  8  5  1  0
  9  3  1  0
  9  8  1  0
 10  3  1  0
 11 10  1  0
 12 11  1  0
 13  7  1  0
 13  1  1  0
 12 13  1  6
 14  1  1  1
 15 14  1  0
 15  6  1  0
 16  6  1  0
 17 16  1  0
 18 17  1  0
 19 18  1  0
 20 19  1  0
 21 20  1  0
 22 21  1  0
 22 17  1  0
 22 14  1  0
 23 12  1  0
 23  9  1  0
 24 23  1  0
 24  2  1  0
M  END
$$$$
