
     RDKit          3D

 24 26  0  0  0  0  0  0  0  0999 V2000
    6.4540    0.6380   17.2680 N   0  0  0  0  0  0  0  0  0  0  0  0
    4.8800    0.9700   21.2730 C   0  0  0  0  0  0  0  0  0  0  0  0
    8.7990    1.3020   20.8540 O   0  0  0  0  0  0  0  0  0  0  0  0
   13.9930   -1.7740   21.8040 Cl  0  0  0  0  0  0  0  0  0  0  0  0
    5.4220    0.8170   19.8750 C   0  0  0  0  0  0  0  0  0  0  0  0
    7.3620   -0.4450   20.6660 N   0  0  0  0  0  0  0  0  0  0  0  0
   12.4650    2.7750   23.5000 O   0  0  0  0  0  0  0  0  0  0  0  0
    4.8010    1.4510   18.8020 C   0  0  0  0  0  0  0  0  0  0  0  0
   11.8210    4.7820   22.2260 N   0  0  0  0  0  0  0  0  0  0  0  0
   12.9350    6.8230   21.8980 O   0  0  0  0  0  0  0  0  0  0  0  0
    5.3470    1.3440   17.5390 C   0  0  0  0  0  0  0  0  0  0  0  0
    7.0570    0.0180   18.2870 C   0  0  0  0  0  0  0  0  0  0  0  0
    6.5970    0.0840   19.6010 C   0  0  0  0  0  0  0  0  0  0  0  0
    8.3900    0.2130   21.2440 C   0  0  0  0  0  0  0  0  0  0  0  0
    8.9930   -0.4860   22.4470 C   0  0  0  0  0  0  0  0  0  0  0  0
   10.4510   -0.1330   22.6250 C   0  0  0  0  0  0  0  0  0  0  0  0
   11.4400   -1.0210   22.2200 C   0  0  0  0  0  0  0  0  0  0  0  0
   12.7620   -0.6330   22.2660 C   0  0  0  0  0  0  0  0  0  0  0  0
   13.1400    0.6210   22.7020 C   0  0  0  0  0  0  0  0  0  0  0  0
   12.1470    1.4950   23.1160 C   0  0  0  0  0  0  0  0  0  0  0  0
   12.7310    3.6020   22.3580 C   0  0  1  0  0  0  0  0  0  0  0  0
   13.8090    4.6040   22.7800 C   0  0  0  0  0  0  0  0  0  0  0  0
   12.8480    5.6510   22.2460 C   0  0  0  0  0  0  0  0  0  0  0  0
   10.8130    1.1240   23.0990 C   0  0  0  0  0  0  0  0  0  0  0  0
  5  2  1  0
  8  5  2  0
 11  8  1  0
 11  1  2  0
 12  1  1  0
 13  5  1  0
 13 12  2  0
 13  6  1  0
 14  6  1  0
 14  3  2  0
 15 14  1  0
 16 15  1  0
 17 16  2  0
 18 17  1  0
 18  4  1  0
 19 18  2  0
 20 19  1  0
 20  7  1  0
 21  9  1  0
 21  7  1  1
 22 21  1  0
 23 22  1  0
 23  9  1  0
 23 10  2  0
 24 16  1  0
 24 20  2  0
M  END
