
     RDKit          3D

 10 10  0  0  0  0  0  0  0  0999 V2000
   30.7510   25.7920   -0.4470 O   0  0  0  0  0  0  0  0  0  0  0  0
   29.8520   26.1070   -1.4850 C   0  0  0  0  0  0  0  0  0  0  0  0
   29.7690   25.3450   -2.6350 C   0  0  0  0  0  0  0  0  0  0  0  0
   28.8810   25.6980   -3.6380 C   0  0  0  0  0  0  0  0  0  0  0  0
   28.0500   26.7900   -3.5050 C   0  0  0  0  0  0  0  0  0  0  0  0
   27.0650   27.1830   -4.6090 C   0  0  0  0  0  0  0  0  0  0  0  0
   26.3450   27.4500   -5.4120 N   0  0  0  0  0  0  0  0  0  0  0  0
   28.1420   27.5290   -2.3520 C   0  0  0  0  0  0  0  0  0  0  0  0
   29.0260   27.1890   -1.3580 C   0  0  0  0  0  0  0  0  0  0  0  0
   27.3490   28.6190   -2.1680 F   0  0  0  0  0  0  0  0  0  0  0  0
  2  1  1  0
  3  2  2  0
  4  3  1  0
  5  4  2  0
  6  5  1  0
  7  6  3  0
  8  5  1  0
  9  2  1  0
  9  8  2  0
 10  8  1  0
M  END
