
     RDKit          3D

 15 16  0  0  0  0  0  0  0  0999 V2000
   12.2410   49.8840  -20.2010 N   0  0  0  0  0  0  0  0  0  0  0  0
   11.0290   49.0650  -20.3390 C   0  0  2  0  0  0  0  0  0  0  0  0
   10.5040   48.5390  -18.9760 C   0  0  1  0  0  0  0  0  0  0  0  0
   11.3530   47.3570  -18.4830 C   0  0  0  0  0  0  0  0  0  0  0  0
   11.6170   46.3710  -19.6000 C   0  0  0  0  0  0  0  0  0  0  0  0
   12.2620   46.9990  -20.7100 O   0  0  0  0  0  0  0  0  0  0  0  0
   11.3810   47.9530  -21.3200 C   0  0  0  0  0  0  0  0  0  0  0  0
   10.3030   49.6040  -17.9120 C   0  0  0  0  0  0  0  0  0  0  0  0
   11.3950   50.1950  -17.2820 C   0  0  0  0  0  0  0  0  0  0  0  0
   11.2090   51.2920  -16.4490 C   0  0  0  0  0  0  0  0  0  0  0  0
   12.3640   51.8870  -16.0050 O   0  0  0  0  0  0  0  0  0  0  0  0
   12.2690   53.0690  -15.2050 C   0  0  0  0  0  0  0  0  0  0  0  0
    9.9330   51.7570  -16.1650 C   0  0  0  0  0  0  0  0  0  0  0  0
    8.8430   51.1350  -16.7510 C   0  0  0  0  0  0  0  0  0  0  0  0
    9.0290   50.0750  -17.6260 C   0  0  0  0  0  0  0  0  0  0  0  0
  2  1  1  1
  3  2  1  0
  4  3  1  0
  5  4  1  0
  6  5  1  0
  7  6  1  0
  7  2  1  0
  3  8  1  1
  9  8  2  0
 10  9  1  0
 11 10  1  0
 12 11  1  0
 13 10  2  0
 14 13  1  0
 15 14  2  0
 15  8  1  0
M  END
