
     RDKit          3D

 17 20  0  0  0  0  0  0  0  0999 V2000
   31.6220   43.8220   -6.2650 C   0  0  0  0  0  0  0  0  0  0  0  0
   31.7960   44.8560   -7.3560 C   0  0  0  0  0  0  0  0  0  0  0  0
   31.3110   45.3030   -5.9490 C   0  0  2  0  0  0  0  0  0  0  0  0
   32.2300   45.9750   -5.0110 C   0  0  0  0  0  0  0  0  0  0  0  0
   32.1220   47.4210   -4.8190 C   0  0  0  0  0  0  0  0  0  0  0  0
   30.7490   48.0710   -5.1420 C   0  0  0  0  0  0  0  0  0  0  0  0
   29.7430   47.2570   -5.9870 N   0  0  0  0  0  0  0  0  0  0  0  0
   29.8630   45.7720   -5.7800 C   0  0  0  0  0  0  0  0  0  0  0  0
   29.0850   47.8010   -7.1740 C   0  0  0  0  0  0  0  0  0  0  0  0
   28.7400   47.1040   -8.2550 N   0  0  0  0  0  0  0  0  0  0  0  0
   28.1670   47.6860   -9.3010 C   0  0  0  0  0  0  0  0  0  0  0  0
   27.8840   48.9740   -9.3070 N   0  0  0  0  0  0  0  0  0  0  0  0
   28.1800   49.7390   -8.2330 C   0  0  0  0  0  0  0  0  0  0  0  0
   28.0110   51.0560   -7.9140 N   0  0  0  0  0  0  0  0  0  0  0  0
   28.4780   51.3330   -6.6990 C   0  0  0  0  0  0  0  0  0  0  0  0
   28.9830   50.1720   -6.1830 C   0  0  0  0  0  0  0  0  0  0  0  0
   28.7850   49.1830   -7.1580 C   0  0  0  0  0  0  0  0  0  0  0  0
  2  1  1  0
  3  2  1  6
  3  1  1  0
  4  3  1  0
  5  4  1  0
  6  5  1  0
  7  6  1  0
  8  7  1  0
  8  3  1  0
  9  7  1  0
 10  9  1  0
 11 10  1  0
 12 11  1  0
 13 12  1  0
 14 13  1  0
 15 14  1  0
 16 15  1  0
 17  9  1  0
 17 16  1  0
 17 13  1  0
M  END
$$$$
