
     RDKit          3D

 13 14  0  0  0  0  0  0  0  0999 V2000
   41.5460   33.8530  -20.9510 C   0  0  0  0  0  0  0  0  0  0  0  0
   40.8710   35.2160  -20.8300 C   0  0  0  0  0  0  0  0  0  0  0  0
   39.9790   35.6080  -21.8270 C   0  0  0  0  0  0  0  0  0  0  0  0
   39.3460   36.8470  -21.7470 C   0  0  0  0  0  0  0  0  0  0  0  0
   38.3510   37.5280  -22.6610 C   0  0  0  0  0  0  0  0  0  0  0  0
   37.8950   37.1030  -23.6750 O   0  0  0  0  0  0  0  0  0  0  0  0
   38.0390   38.8300  -22.0620 C   0  0  0  0  0  0  0  0  0  0  0  0
   37.2910   39.6250  -22.4970 O   0  0  0  0  0  0  0  0  0  0  0  0
   38.8010   38.9690  -20.8390 N   0  0  0  0  0  0  0  0  0  0  0  0
   39.6210   37.7110  -20.6510 C   0  0  0  0  0  0  0  0  0  0  0  0
   40.5150   37.3270  -19.6460 C   0  0  0  0  0  0  0  0  0  0  0  0
   41.1440   36.0790  -19.7360 C   0  0  0  0  0  0  0  0  0  0  0  0
   40.8710   38.5260  -18.1480 Br  0  0  0  0  0  0  0  0  0  0  0  0
  2  1  1  0
  3  2  1  0
  4  3  1  0
  5  4  1  0
  6  5  1  0
  7  5  1  0
  8  7  1  0
  9  7  1  0
 10  4  1  0
 10  9  1  0
 11 10  1  0
 12 11  1  0
 12  2  1  0
 13 11  1  0
M  END
$$$$
