
     RDKit          3D

 43 46  0  0  0  0  0  0  0  0999 V2000
    5.2930   -5.9080   21.9580 C   0  0  0  0  0  0  0  0  0  0  0  0
    4.2930   -5.2300   22.8870 C   0  0  0  0  0  0  0  0  0  0  0  0
    3.1270   -5.9130   23.2600 C   0  0  0  0  0  0  0  0  0  0  0  0
   10.0640    0.8170   23.0670 N   0  0  0  0  0  0  0  0  0  0  0  0
   10.3160    0.7800   24.3970 C   0  0  0  0  0  0  0  0  0  0  0  0
   10.1360    1.8810   25.2280 C   0  0  0  0  0  0  0  0  0  0  0  0
    9.6960    3.0820   24.7090 C   0  0  0  0  0  0  0  0  0  0  0  0
    9.4090    3.1890   23.3340 C   0  0  0  0  0  0  0  0  0  0  0  0
   10.1990   -0.3470   22.1900 C   0  0  1  0  0  0  0  0  0  0  0  0
    9.5800    2.0030   22.4790 C   0  0  0  0  0  0  0  0  0  0  0  0
   11.0440   -1.4820   22.7850 C   0  0  0  0  0  0  0  0  0  0  0  0
    9.2990    2.0390   21.2420 O   0  0  0  0  0  0  0  0  0  0  0  0
    2.1940   -5.3270   24.1220 C   0  0  0  0  0  0  0  0  0  0  0  0
    8.9390    4.2940   22.7100 N   0  0  0  0  0  0  0  0  0  0  0  0
    8.5450    5.4400   23.2750 C   0  0  0  0  0  0  0  0  0  0  0  0
    2.4260   -4.0440   24.6180 C   0  0  0  0  0  0  0  0  0  0  0  0
    7.9480    6.3900   22.3550 O   0  0  0  0  0  0  0  0  0  0  0  0
    3.5890   -3.3560   24.2500 C   0  0  0  0  0  0  0  0  0  0  0  0
    8.6630    5.7240   24.4560 O   0  0  0  0  0  0  0  0  0  0  0  0
    7.1750    7.5460   22.7260 C   0  0  1  0  0  0  0  0  0  0  0  0
    4.5160   -3.9480   23.3890 C   0  0  0  0  0  0  0  0  0  0  0  0
   12.4790   -1.0200   23.0460 C   0  0  2  0  0  0  0  0  0  0  0  0
   13.4160   -1.1910   21.8390 C   0  0  0  0  0  0  0  0  0  0  0  0
    8.0800    8.4770   23.5510 C   0  0  0  0  0  0  0  0  0  0  0  0
    6.6800    8.2420   21.4490 C   0  0  0  0  0  0  0  0  0  0  0  0
    5.9390    7.1390   23.5400 C   0  0  0  0  0  0  0  0  0  0  0  0
   13.5990   -2.0550   23.0800 C   0  0  0  0  0  0  0  0  0  0  0  0
    6.3770   -4.1790   20.4910 C   0  0  0  0  0  0  0  0  0  0  0  0
    8.7930   -0.8000   21.9030 C   0  0  0  0  0  0  0  0  0  0  0  0
    6.3720   -4.9920   21.5870 N   0  0  0  0  0  0  0  0  0  0  0  0
    7.9100   -0.6480   22.7480 O   0  0  0  0  0  0  0  0  0  0  0  0
    8.5700   -1.3730   20.7080 N   0  0  0  0  0  0  0  0  0  0  0  0
    7.3020   -1.9160   20.3320 C   0  0  1  0  0  0  0  0  0  0  0  0
    8.4030   -3.8600   21.5360 O   0  0  0  0  0  0  0  0  0  0  0  0
    5.5530   -4.0370   19.6060 O   0  0  0  0  0  0  0  0  0  0  0  0
    6.7130   -1.2950   19.0260 C   0  0  0  0  0  0  0  0  0  0  0  0
    6.2680    0.1040   19.3310 C   0  0  1  0  0  0  0  0  0  0  0  0
    5.8680    0.9790   18.1630 C   0  0  0  0  0  0  0  0  0  0  0  0
    6.4790    0.9880   17.0980 O   0  0  0  0  0  0  0  0  0  0  0  0
    4.8170    1.7380   18.5140 N   0  0  0  0  0  0  0  0  0  0  0  0
    4.4050    1.5380   19.9080 C   0  0  0  0  0  0  0  0  0  0  0  0
    5.0280    0.1850   20.2300 C   0  0  0  0  0  0  0  0  0  0  0  0
    7.6260   -3.4050   20.3650 C   0  0  1  0  0  0  0  0  0  0  0  0
  2  1  1  0
  3  2  2  0
  5  4  1  0
  6  5  2  0
  7  6  1  0
  8  7  2  0
  9  4  1  0
 10  8  1  0
 10  4  1  0
  9 11  1  1
 12 10  2  0
 13  3  1  0
 14  8  1  0
 15 14  1  0
 16 13  2  0
 17 15  1  0
 18 16  1  0
 19 15  2  0
 20 17  1  0
 21 18  2  0
 21  2  1  0
 22 11  1  6
 23 22  1  0
 20 24  1  1
 25 20  1  0
 26 20  1  0
 27 23  1  0
 27 22  1  0
 29  9  1  0
 30  1  1  0
 30 28  1  0
 31 29  2  0
 32 29  1  0
 33 32  1  0
 35 28  2  0
 33 36  1  6
 37 36  1  6
 38 37  1  0
 39 38  2  0
 40 38  1  0
 41 40  1  0
 42 41  1  0
 42 37  1  0
 43 34  1  1
 43 33  1  0
 43 28  1  0
M  END
$$$$
