
     RDKit          3D

 22 24  0  0  0  0  0  0  0  0999 V2000
    6.6800    0.5480   17.5710 N   0  0  0  0  0  0  0  0  0  0  0  0
    4.9990    0.8890   21.5320 C   0  0  0  0  0  0  0  0  0  0  0  0
    9.0600    0.9040   21.0840 O   0  0  0  0  0  0  0  0  0  0  0  0
   13.8320   -1.7450   21.2430 Cl  0  0  0  0  0  0  0  0  0  0  0  0
    5.5570    0.7060   20.1420 C   0  0  1  0  0  0  0  0  0  0  0  0
    7.4040   -0.6360   20.9850 N   0  0  0  0  0  0  0  0  0  0  0  0
    6.6460   -2.4830   24.5210 O   0  0  0  0  0  0  0  0  0  0  0  0
    4.9590    1.3210   19.0500 C   0  0  0  0  0  0  0  0  0  0  0  0
    5.5500    1.2250   17.8040 C   0  0  0  0  0  0  0  0  0  0  0  0
    7.2510   -0.0750   18.6070 C   0  0  0  0  0  0  0  0  0  0  0  0
    6.7390   -0.0240   19.9030 C   0  0  0  0  0  0  0  0  0  0  0  0
    8.4950   -0.0820   21.5450 C   0  0  0  0  0  0  0  0  0  0  0  0
    8.9790   -0.7410   22.8490 C   0  0  1  0  0  0  0  0  0  0  0  0
    8.1250   -0.4890   24.1560 C   0  0  0  0  0  0  0  0  0  0  0  0
    7.5720   -1.8940   24.0100 C   0  0  0  0  0  0  0  0  0  0  0  0
    8.6090   -2.2760   22.9720 C   0  0  0  0  0  0  0  0  0  0  0  0
   10.4700   -0.4310   22.9390 C   0  0  0  0  0  0  0  0  0  0  0  0
   10.9430    0.5830   23.7670 C   0  0  0  0  0  0  0  0  0  0  0  0
   12.2940    0.9010   23.7960 C   0  0  0  0  0  0  0  0  0  0  0  0
   13.1930    0.2010   23.0040 C   0  0  0  0  0  0  0  0  0  0  0  0
   12.7150   -0.8150   22.1970 C   0  0  0  0  0  0  0  0  0  0  0  0
   11.3730   -1.1360   22.1490 C   0  0  0  0  0  0  0  0  0  0  0  0
  5  2  1  1
  8  5  1  0
  9  8  1  0
  9  1  1  0
 10  1  1  0
 11 10  1  0
 11  6  1  0
 11  5  1  0
 12  6  1  0
 12  3  1  0
 13 12  1  6
 14 13  1  0
 15 14  1  0
 15  7  1  0
 16 15  1  0
 16 13  1  0
 17 13  1  0
 18 17  1  0
 19 18  1  0
 20 19  1  0
 21  4  1  0
 21 20  1  0
 22 17  1  0
 22 21  1  0
M  END
$$$$
