
     RDKit          3D

 16 17  0  0  0  0  0  0  0  0999 V2000
    9.1840    6.1610   22.6700 C   0  0  0  0  0  0  0  0  0  0  0  0
   10.4650    5.8560   23.4370 C   0  0  0  0  0  0  0  0  0  0  0  0
   12.8550    4.9860   23.3950 C   0  0  0  0  0  0  0  0  0  0  0  0
   13.2290    3.5570   22.9930 C   0  0  0  0  0  0  0  0  0  0  0  0
   12.2400    2.4750   23.4550 C   0  0  0  0  0  0  0  0  0  0  0  0
   11.1170    2.6540   24.2470 C   0  0  0  0  0  0  0  0  0  0  0  0
   11.2140    0.5030   23.7510 C   0  0  0  0  0  0  0  0  0  0  0  0
   10.9820   -0.8920   23.6260 C   0  0  0  0  0  0  0  0  0  0  0  0
   11.8610   -1.6720   22.8790 C   0  0  0  0  0  0  0  0  0  0  0  0
   12.9660   -1.0800   22.2570 C   0  0  0  0  0  0  0  0  0  0  0  0
   13.1920    0.2890   22.3870 C   0  0  0  0  0  0  0  0  0  0  0  0
   12.2980    1.0920   23.1460 C   0  0  0  0  0  0  0  0  0  0  0  0
   13.8310   -1.8370   21.5240 F   0  0  0  0  0  0  0  0  0  0  0  0
   11.6140    5.3230   22.7250 N   0  0  0  0  0  0  0  0  0  0  0  0
   10.5240    1.4790   24.4090 N   0  0  0  0  0  0  0  0  0  0  0  0
   10.5070    6.0440   24.6010 O   0  0  0  0  0  0  0  0  0  0  0  0
  2  1  1  0
  4  3  1  0
  5  4  1  0
  6  5  2  0
  8  7  2  0
  9  8  1  0
 10  9  2  0
 11 10  1  0
 12 11  2  0
 12  7  1  0
 12  5  1  0
 13 10  1  0
 14  2  1  0
 14  3  1  0
 15  7  1  0
 15  6  1  0
 16  2  2  0
M  END
