
     RDKit          3D

  4  4  0  0  0  0  0  0  0  0999 V2000
   -5.3790    2.9940   -9.0510 N   0  0  0  0  0  0  0  0  0  0  0  0
   -6.2630    2.5550   -7.9690 C   0  0  1  0  0  0  0  0  0  0  0  0
   -5.9950    2.9820   -6.4870 C   0  0  0  0  0  0  0  0  0  0  0  0
   -7.1630    3.5490   -7.2140 C   0  0  0  0  0  0  0  0  0  0  0  0
  2  1  1  6
  3  2  1  0
  4  3  1  0
  4  2  1  0
M  END
