
     RDKit          3D

 21 22  0  0  0  0  0  0  0  0999 V2000
    7.0960   -3.4700   21.1350 N   0  0  0  0  0  0  0  0  0  0  0  0
    7.0040   -2.8940   18.7600 C   0  0  0  0  0  0  0  0  0  0  0  0
    5.7500   -4.6280   19.7330 O   0  0  0  0  0  0  0  0  0  0  0  0
    6.5610   -3.7330   19.9210 C   0  0  0  0  0  0  0  0  0  0  0  0
    9.6920   -4.9350   26.5270 C   0  0  0  0  0  0  0  0  0  0  0  0
    9.1900   -3.8460   25.8240 C   0  0  0  0  0  0  0  0  0  0  0  0
    9.9810   -3.2660   24.7700 C   0  0  0  0  0  0  0  0  0  0  0  0
    8.0090   -2.3690   21.4760 C   0  0  0  0  0  0  0  0  0  0  0  0
    7.4520   -1.5380   22.6040 C   0  0  0  0  0  0  0  0  0  0  0  0
    6.1740   -3.4640   23.3790 C   0  0  0  0  0  0  0  0  0  0  0  0
    6.7630   -4.3130   22.2860 C   0  0  0  0  0  0  0  0  0  0  0  0
    7.9410   -3.2970   26.1660 C   0  0  2  0  0  0  0  0  0  0  0  0
    7.2000   -3.8930   27.1830 C   0  0  0  0  0  0  0  0  0  0  0  0
    7.7130   -4.9770   27.8710 C   0  0  0  0  0  0  0  0  0  0  0  0
    8.9470   -5.4920   27.5470 C   0  0  0  0  0  0  0  0  0  0  0  0
    7.1840   -2.4520   23.7220 N   0  0  0  0  0  0  0  0  0  0  0  0
   10.6110   -2.7060   23.9920 N   0  0  0  0  0  0  0  0  0  0  0  0
    8.2230   -0.8590   25.3070 O   0  0  0  0  0  0  0  0  0  0  0  0
    5.9330   -1.7000   25.7240 O   0  0  0  0  0  0  0  0  0  0  0  0
    7.2700   -1.9230   25.2720 S   0  0  2  0  0  0  0  0  0  0  0  0
    8.6980   -3.4010   18.3920 S   0  0  0  0  0  0  0  0  0  0  0  0
  4  3  1  0
  4  2  1  0
  4  1  1  0
  6  5  1  0
  7  6  1  0
  8  1  1  0
  9  8  1  0
 11  1  1  0
 11 10  1  0
 12  6  1  0
 12 13  1  6
 14 13  1  0
 15  5  1  0
 15 14  1  0
 16 10  1  0
 16  9  1  0
 17  7  1  0
 20 19  1  1
 20 18  1  0
 20 16  1  0
 20 12  1  0
  2 21  1  0
M  END
$$$$
