
     RDKit          3D

 16 17  0  0  0  0  0  0  0  0999 V2000
    8.9620    0.2240   21.7200 C   0  0  0  0  0  0  0  0  0  0  0  0
    9.5140   -0.2640   23.0540 C   0  0  0  0  0  0  0  0  0  0  0  0
   11.0320   -0.1730   23.1190 C   0  0  2  0  0  0  0  0  0  0  0  0
   11.6820   -1.1180   22.1100 C   0  0  0  0  0  0  0  0  0  0  0  0
   12.9270   -1.8160   22.6520 C   0  0  0  0  0  0  0  0  0  0  0  0
   13.7410   -0.9860   23.6350 C   0  0  0  0  0  0  0  0  0  0  0  0
   12.9140   -0.2780   24.7030 C   0  0  0  0  0  0  0  0  0  0  0  0
   11.4160   -0.5000   24.5520 C   0  0  0  0  0  0  0  0  0  0  0  0
    7.0890    0.1080   20.1160 C   0  0  0  0  0  0  0  0  0  0  0  0
    5.8360    0.7020   20.2340 C   0  0  0  0  0  0  0  0  0  0  0  0
    5.2350    1.1350   19.0570 C   0  0  0  0  0  0  0  0  0  0  0  0
    5.9150    0.9580   17.8610 C   0  0  0  0  0  0  0  0  0  0  0  0
    7.7280   -0.0310   18.8990 C   0  0  0  0  0  0  0  0  0  0  0  0
    7.7050   -0.3290   21.3320 N   0  0  0  0  0  0  0  0  0  0  0  0
    7.1140    0.3960   17.8170 N   0  0  0  0  0  0  0  0  0  0  0  0
    9.5180    1.0170   21.0300 O   0  0  0  0  0  0  0  0  0  0  0  0
  2  1  1  0
  3  2  1  1
  4  3  1  0
  5  4  1  0
  6  5  1  0
  7  6  1  0
  8  7  1  0
  8  3  1  0
 10  9  2  0
 11 10  1  0
 12 11  2  0
 13  9  1  0
 14  9  1  0
 14  1  1  0
 15 13  2  0
 15 12  1  0
 16  1  2  0
M  END
