
     RDKit          3D

 29 30  0  0  0  0  0  0  0  0999 V2000
   13.3500   -2.1880   24.5080 C   0  0  0  0  0  0  0  0  0  0  0  0
   12.6800   -1.8790   23.2210 C   0  0  2  0  0  0  0  0  0  0  0  0
   13.3300   -0.6940   22.5630 C   0  0  0  0  0  0  0  0  0  0  0  0
   11.1350   -1.8120   23.3630 C   0  0  0  0  0  0  0  0  0  0  0  0
   10.4250   -0.7660   22.3910 C   0  0  2  0  0  0  0  0  0  0  0  0
   10.3070    0.4920   23.0800 N   0  0  0  0  0  0  0  0  0  0  0  0
    9.9740    1.6800   22.4820 C   0  0  0  0  0  0  0  0  0  0  0  0
    9.7650    1.8220   21.2580 O   0  0  0  0  0  0  0  0  0  0  0  0
    9.8540    2.7590   23.3490 O   0  0  0  0  0  0  0  0  0  0  0  0
   10.1360    4.1420   22.9940 C   0  0  0  0  0  0  0  0  0  0  0  0
   11.6300    4.7300   23.0960 C   0  0  1  0  0  0  0  0  0  0  0  0
   12.6870    4.1410   22.3780 C   0  0  0  0  0  0  0  0  0  0  0  0
   13.9770    4.6920   22.4240 C   0  0  0  0  0  0  0  0  0  0  0  0
   14.2430    5.8540   23.2100 C   0  0  0  0  0  0  0  0  0  0  0  0
   13.2090    6.4620   23.9240 C   0  0  0  0  0  0  0  0  0  0  0  0
   11.9080    5.8880   23.8580 C   0  0  0  0  0  0  0  0  0  0  0  0
    9.0170   -1.2320   21.9310 C   0  0  0  0  0  0  0  0  0  0  0  0
    8.0970   -1.0490   22.6980 O   0  0  0  0  0  0  0  0  0  0  0  0
    8.8170   -1.7800   20.6900 N   0  0  0  0  0  0  0  0  0  0  0  0
    7.5090   -2.2000   20.1740 C   0  0  2  0  0  0  0  0  0  0  0  0
    7.6630   -3.5860   19.5480 C   0  0  0  0  0  0  0  0  0  0  0  0
    7.9550   -4.4430   20.5840 O   0  0  0  0  0  0  0  0  0  0  0  0
    7.0020   -1.2870   19.0770 C   0  0  0  0  0  0  0  0  0  0  0  0
    6.7900    0.1170   19.4390 C   0  0  2  0  0  0  0  0  0  0  0  0
    5.4840    0.1730   20.2330 C   0  0  0  0  0  0  0  0  0  0  0  0
    5.0110    1.6440   20.1500 C   0  0  0  0  0  0  0  0  0  0  0  0
    5.3480    2.0650   18.7720 N   0  0  0  0  0  0  0  0  0  0  0  0
    6.3730    1.1960   18.3480 C   0  0  0  0  0  0  0  0  0  0  0  0
    6.9120    1.2320   17.2640 O   0  0  0  0  0  0  0  0  0  0  0  0
  2  1  1  1
  3  2  1  0
  4  2  1  0
  5  4  1  1
  6  5  1  0
  7  6  1  0
  8  7  1  0
  9  7  1  0
 10  9  1  0
 11 10  1  6
 12 11  1  0
 13 12  1  0
 14 13  1  0
 15 14  1  0
 16 11  1  0
 16 15  1  0
 17  5  1  0
 18 17  1  0
 19 17  1  0
 20 19  1  0
 20 21  1  6
 22 21  1  0
 23 20  1  0
 24 23  1  6
 25 24  1  0
 26 25  1  0
 27 26  1  0
 28 27  1  0
 28 24  1  0
 29 28  1  0
M  END
$$$$
