MAT-POS-590ac91e-28
     RDKit          3D

 17 19  0  0  1  0  0  0  0  0999 V2000
    5.1086    0.9800   19.1321 C   0  0  0  0  0  0  0  0  0  0  0  0
    5.5962    0.7404   17.8576 C   0  0  0  0  0  0  0  0  0  0  0  0
    7.6116   -0.0038   18.6716 C   0  0  0  0  0  0  0  0  0  0  0  0
    5.9414    0.7026   20.2104 C   0  0  0  0  0  0  0  0  0  0  0  0
    7.2185    0.2012   19.9844 C   0  0  0  0  0  0  0  0  0  0  0  0
    9.4908   -0.0411   21.0342 C   0  0  0  0  0  0  0  0  0  0  0  0
   12.6463   -1.2759   21.6757 C   0  0  0  0  0  0  0  0  0  0  0  0
   13.7081   -1.0942   22.7948 C   0  0  0  0  0  0  0  0  0  0  0  0
   12.1357    0.2577   24.0600 C   0  0  0  0  0  0  0  0  0  0  0  0
   10.0482   -0.4255   22.3357 C   0  0  1  0  0  0  0  0  0  0  0  0
   11.3315   -1.1991   22.3665 C   0  0  2  0  0  0  0  0  0  0  0  0
   11.2780    0.2462   22.8519 C   0  0  2  0  0  0  0  0  0  0  0  0
    5.4415    0.9521   21.5956 C   0  0  0  0  0  0  0  0  0  0  0  0
    6.8307    0.2539   17.5986 N   0  0  0  0  0  0  0  0  0  0  0  0
    8.1029   -0.0970   21.0480 N   0  0  0  0  0  0  0  0  0  0  0  0
   10.2260    0.2786   20.1057 O   0  0  0  0  0  0  0  0  0  0  0  0
   13.4992    0.0917   23.5976 O   0  0  0  0  0  0  0  0  0  0  0  0
  1  2  2  0
  1  4  1  0
  2 14  1  0
  3  5  1  0
  3 14  2  0
  4  5  2  0
  4 13  1  0
  5 15  1  0
 10  6  1  6
  6 15  1  0
  6 16  2  0
  7  8  1  0
 11  7  1  6
  8 17  1  0
 12  9  1  1
  9 17  1  0
 10 11  1  0
 10 12  1  0
 11 12  1  0
M  END
$$$$
