MAT-POS-590ac91e-23
     RDKit          3D

 17 19  0  0  1  0  0  0  0  0999 V2000
    4.5796    0.7587   19.0892 C   0  0  0  0  0  0  0  0  0  0  0  0
    5.2992    0.6235   17.9130 C   0  0  0  0  0  0  0  0  0  0  0  0
    7.2897    0.4454   19.0462 C   0  0  0  0  0  0  0  0  0  0  0  0
    5.2822    0.7317   20.2888 C   0  0  0  0  0  0  0  0  0  0  0  0
    6.6634    0.5725   20.2756 C   0  0  0  0  0  0  0  0  0  0  0  0
    8.7401    0.9507   21.6491 C   0  0  0  0  0  0  0  0  0  0  0  0
   11.5910   -3.1169   23.7580 C   0  0  0  0  0  0  0  0  0  0  0  0
    9.5409   -1.7132   22.4294 C   0  0  0  0  0  0  0  0  0  0  0  0
    9.9823   -1.0216   24.7457 C   0  0  0  0  0  0  0  0  0  0  0  0
   10.8838   -2.1061   22.9365 C   0  0  1  0  0  0  0  0  0  0  0  0
   10.4820   -2.3834   24.4155 C   0  0  1  0  0  0  0  0  0  0  0  0
    9.0589   -0.7155   23.5273 C   0  0  0  0  0  0  0  0  0  0  0  0
    4.5316    0.8758   21.5720 C   0  0  0  0  0  0  0  0  0  0  0  0
    9.1685    0.7395   23.0918 C   0  0  0  0  0  0  0  0  0  0  0  0
    6.6410    0.4670   17.8603 N   0  0  0  0  0  0  0  0  0  0  0  0
    7.4228    0.5383   21.4693 N   0  0  0  0  0  0  0  0  0  0  0  0
    9.4950    1.4237   20.8059 O   0  0  0  0  0  0  0  0  0  0  0  0
  1  2  2  0
  1  4  1  0
  2 15  1  0
  3  5  1  0
  3 15  2  0
  4  5  2  0
  4 13  1  0
  5 16  1  0
  6 14  1  0
  6 16  1  0
  6 17  2  0
 10  7  1  6
 11  7  1  1
  8 10  1  0
  8 12  1  0
  9 11  1  0
  9 12  1  0
 10 11  1  0
 12 14  1  0
M  END
$$$$
