MAT-POS-590ac91e-20
     RDKit          3D

 17 19  0  0  1  0  0  0  0  0999 V2000
    4.9803    1.4431   18.9216 C   0  0  0  0  0  0  0  0  0  0  0  0
    5.6015    1.1096   17.7288 C   0  0  0  0  0  0  0  0  0  0  0  0
    5.6143    1.0879   20.1070 C   0  0  0  0  0  0  0  0  0  0  0  0
    6.8328    0.4196   20.0640 C   0  0  0  0  0  0  0  0  0  0  0  0
    7.3709    0.1318   18.8201 C   0  0  0  0  0  0  0  0  0  0  0  0
    8.7645    0.4391   21.6741 C   0  0  0  0  0  0  0  0  0  0  0  0
    9.1619   -1.7239   22.8724 C   0  0  0  0  0  0  0  0  0  0  0  0
   10.5406    0.2226   23.4574 C   0  0  0  0  0  0  0  0  0  0  0  0
   11.8239   -2.2849   23.6128 C   0  0  0  0  0  0  0  0  0  0  0  0
    9.1100   -0.1755   22.9943 C   0  0  0  0  0  0  0  0  0  0  0  0
   10.3612   -2.0554   23.6884 C   0  0  1  0  0  0  0  0  0  0  0  0
   11.3267   -0.9888   23.0917 C   0  0  1  0  0  0  0  0  0  0  0  0
    4.9649    1.4362   21.4064 C   0  0  0  0  0  0  0  0  0  0  0  0
    8.6780   -0.5841   18.7064 C   0  0  0  0  0  0  0  0  0  0  0  0
    6.7847    0.4608   17.6472 N   0  0  0  0  0  0  0  0  0  0  0  0
    7.4998    0.0462   21.2548 N   0  0  0  0  0  0  0  0  0  0  0  0
    9.5527    1.1862   21.1036 O   0  0  0  0  0  0  0  0  0  0  0  0
  1  2  2  0
  1  3  1  0
  2 15  1  0
  3  4  2  0
  3 13  1  0
  4  5  1  0
  4 16  1  0
  5 14  1  0
  5 15  2  0
  6 10  1  0
  6 16  1  0
  6 17  2  0
  7 10  1  0
 11  7  1  6
  8 10  1  0
 12  8  1  1
  9 11  1  0
  9 12  1  0
 11 12  1  0
M  END
$$$$
