
     RDKit          3D

 37 39  0  0  0  0  0  0  0  0999 V2000
   11.3520    4.8700   22.9080 C   0  0  0  0  0  0  0  0  0  0  0  0
   11.8230    4.6110   23.9620 O   0  0  0  0  0  0  0  0  0  0  0  0
   11.8910    5.9470   22.0540 N   0  0  0  0  0  0  0  0  0  0  0  0
   13.0840    6.7240   22.4530 C   0  0  2  0  0  0  0  0  0  0  0  0
   14.2530    5.7130   22.5460 C   0  0  0  0  0  0  0  0  0  0  0  0
   12.9060    7.4340   23.8170 C   0  0  0  0  0  0  0  0  0  0  0  0
   13.3650    7.7560   21.3310 C   0  0  0  0  0  0  0  0  0  0  0  0
   10.1780    4.1280   22.4080 N   0  0  0  0  0  0  0  0  0  0  0  0
    9.6280    3.0860   23.2240 C   0  0  1  0  0  0  0  0  0  0  0  0
    8.1830    3.4510   23.6360 C   0  0  1  0  0  0  0  0  0  0  0  0
    7.5150    2.2380   24.3250 C   0  0  0  0  0  0  0  0  0  0  0  0
    8.2180    4.6650   24.5930 C   0  0  0  0  0  0  0  0  0  0  0  0
    7.3630    3.8340   22.3850 C   0  0  0  0  0  0  0  0  0  0  0  0
    9.6710    1.7830   22.4360 C   0  0  0  0  0  0  0  0  0  0  0  0
    9.1080    1.6490   21.4110 O   0  0  0  0  0  0  0  0  0  0  0  0
   10.4790    0.6380   22.9950 N   0  0  0  0  0  0  0  0  0  0  0  0
   11.3140    0.5970   24.2780 C   0  0  0  0  0  0  0  0  0  0  0  0
   10.6820   -0.7220   22.4130 C   0  0  1  0  0  0  0  0  0  0  0  0
   11.3020   -1.7170   23.3560 C   0  0  2  0  0  0  0  0  0  0  0  0
   11.4870   -0.8670   24.6420 C   0  0  1  0  0  0  0  0  0  0  0  0
   12.5660   -0.8290   23.5180 C   0  0  2  0  0  0  0  0  0  0  0  0
   13.1170    0.2170   22.4450 C   0  0  0  0  0  0  0  0  0  0  0  0
   13.7680   -1.6720   24.0500 C   0  0  0  0  0  0  0  0  0  0  0  0
    9.2580   -1.2940   22.2770 C   0  0  0  0  0  0  0  0  0  0  0  0
    8.5720   -1.3900   23.2290 O   0  0  0  0  0  0  0  0  0  0  0  0
    8.7260   -1.7660   20.9740 N   0  0  0  0  0  0  0  0  0  0  0  0
    7.3770   -2.3150   20.9600 C   0  0  1  0  0  0  0  0  0  0  0  0
    6.4450   -1.4180   20.1270 C   0  0  0  0  0  0  0  0  0  0  0  0
    6.0930   -0.0990   20.9600 C   0  0  1  0  0  0  0  0  0  0  0  0
    5.1080    0.7180   20.2870 C   0  0  0  0  0  0  0  0  0  0  0  0
    5.4370   -0.4020   22.2090 C   0  0  0  0  0  0  0  0  0  0  0  0
    4.3830    0.7970   21.7710 C   0  0  0  0  0  0  0  0  0  0  0  0
    8.3560   -4.4880   21.0470 O   0  0  0  0  0  0  0  0  0  0  0  0
    7.4330   -3.7120   20.3590 C   0  0  0  0  0  0  0  0  0  0  0  0
    5.3420   -4.3280   19.4660 O   0  0  0  0  0  0  0  0  0  0  0  0
    5.6210   -5.0560   21.6240 N   0  0  0  0  0  0  0  0  0  0  0  0
    6.0500   -4.3740   20.4020 C   0  0  0  0  0  0  0  0  0  0  0  0
  2  1  2  0
  3  1  1  0
  4  3  1  0
  4  5  1  1
  6  4  1  0
  7  4  1  0
  8  1  1  0
  9  8  1  6
 10  9  1  0
 10 11  1  1
 12 10  1  0
 13 10  1  0
 14  9  1  0
 15 14  2  0
 16 14  1  0
 17 16  1  0
 18 16  1  0
 19 18  1  6
 20 19  1  0
 20 17  1  6
 21 20  1  0
 21 19  1  0
 21 22  1  6
 23 21  1  0
 18 24  1  1
 25 24  2  0
 26 24  1  0
 27 26  1  0
 27 28  1  6
 29 28  1  6
 30 29  1  0
 31 29  1  0
 32 30  1  0
 32 31  1  0
 34 33  2  0
 34 27  1  0
 37 35  2  0
 37 36  1  0
 37 34  1  0
M  END
$$$$
