
     RDKit          3D

  9  9  0  0  0  0  0  0  0  0999 V2000
   28.3400   50.9740   -8.0450 Br  0  0  0  0  0  0  0  0  0  0  0  0
   28.5950   52.7780   -7.5400 C   0  0  0  0  0  0  0  0  0  0  0  0
   28.1520   53.7870   -8.3680 C   0  0  0  0  0  0  0  0  0  0  0  0
   29.1390   53.0770   -6.3090 C   0  0  0  0  0  0  0  0  0  0  0  0
   29.2440   54.3360   -5.8740 N   0  0  0  0  0  0  0  0  0  0  0  0
   28.7990   55.3080   -6.6760 C   0  0  0  0  0  0  0  0  0  0  0  0
   28.2350   55.1020   -7.9250 C   0  0  0  0  0  0  0  0  0  0  0  0
   27.6630   56.2440   -8.7350 C   0  0  0  0  0  0  0  0  0  0  0  0
   28.7420   56.9200   -9.4540 N   0  0  0  0  0  0  0  0  0  0  0  0
  2  1  1  0
  3  2  2  0
  4  2  1  0
  5  4  2  0
  6  5  1  0
  7  3  1  0
  7  6  2  0
  8  7  1  0
  9  8  1  0
M  END
