
     RDKit          3D

 27 31  0  0  0  0  0  0  0  0999 V2000
    9.1290    1.3480   21.1030 O   0  0  0  0  0  0  0  0  0  0  0  0
    8.7290    0.3070   21.5890 C   0  0  2  0  0  0  0  0  0  0  0  0
    9.2430   -0.3550   22.8870 C   0  0  2  0  0  0  0  0  0  0  0  0
    8.6400    0.3900   24.0960 C   0  0  0  0  0  0  0  0  0  0  0  0
    9.4620    1.6020   24.4800 C   0  0  0  0  0  0  0  0  0  0  0  0
   10.8120    1.2370   24.7820 O   0  0  0  0  0  0  0  0  0  0  0  0
   10.7650   -0.2780   22.8790 C   0  0  2  0  0  0  0  0  0  0  0  0
   11.4440    0.5670   23.7660 C   0  0  0  0  0  0  0  0  0  0  0  0
   12.8120    0.7550   23.6930 C   0  0  0  0  0  0  0  0  0  0  0  0
   13.5400    0.0590   22.7490 C   0  0  0  0  0  0  0  0  0  0  0  0
   11.5190   -0.9910   21.9480 C   0  0  0  0  0  0  0  0  0  0  0  0
   12.8930   -0.8260   21.9160 C   0  0  2  0  0  0  0  0  0  0  0  0
   13.8400   -1.8340   20.8600 Cl  0  0  0  0  0  0  0  0  0  0  0  0
    7.7830   -0.5560   21.0540 N   0  0  0  0  0  0  0  0  0  0  0  0
    7.7370   -1.7650   21.7580 C   0  0  2  0  0  0  0  0  0  0  0  0
    6.9490   -2.6750   21.5510 O   0  0  0  0  0  0  0  0  0  0  0  0
    8.6570   -1.6840   22.7480 N   0  0  0  0  0  0  0  0  0  0  0  0
    6.8870   -0.1900   19.9880 C   0  0  1  0  0  0  0  0  0  0  0  0
    5.7140    0.5590   20.2960 C   0  0  0  0  0  0  0  0  0  0  0  0
    5.1780    0.7070   21.6010 C   0  0  0  0  0  0  0  0  0  0  0  0
    4.0240    1.4070   21.8130 C   0  0  0  0  0  0  0  0  0  0  0  0
    3.3520    1.9970   20.7540 C   0  0  0  0  0  0  0  0  0  0  0  0
    3.8370    1.9030   19.4800 C   0  0  0  0  0  0  0  0  0  0  0  0
    5.0270    1.1810   19.2160 C   0  0  0  0  0  0  0  0  0  0  0  0
    5.5680    1.0240   17.9140 C   0  0  0  0  0  0  0  0  0  0  0  0
    6.6650    0.3320   17.6390 N   0  0  0  0  0  0  0  0  0  0  0  0
    7.2970   -0.2580   18.6620 C   0  0  0  0  0  0  0  0  0  0  0  0
  2  1  1  6
  3  2  1  0
  3  4  1  1
  5  4  1  0
  6  5  1  0
  7  3  1  0
  8  7  1  0
  8  6  1  0
  9  8  1  0
 10  9  1  0
  7 11  1  6
 12 11  1  0
 12 10  1  0
 12 13  1  1
 14  2  1  0
 15 14  1  0
 15 16  1  1
 17 15  1  0
 17  3  1  0
 18 14  1  1
 19 18  1  0
 20 19  1  0
 21 20  1  0
 22 21  1  0
 23 22  1  0
 24 23  1  0
 24 19  1  0
 25 24  1  0
 26 25  1  0
 27 26  1  0
 27 18  1  0
M  END
$$$$
