
     RDKit          3D

 16 18  0  0  0  0  0  0  0  0999 V2000
   27.9240   51.8400   -7.8010 N   0  0  0  0  0  0  0  0  0  0  0  0
   28.4550   50.6360   -7.2400 C   0  0  0  0  0  0  0  0  0  0  0  0
   28.3910   49.4090   -7.9980 C   0  0  0  0  0  0  0  0  0  0  0  0
   27.9010   49.1270   -9.2550 N   0  0  0  0  0  0  0  0  0  0  0  0
   28.1720   47.8430   -9.4310 C   0  0  0  0  0  0  0  0  0  0  0  0
   28.7420   47.3320   -8.3610 N   0  0  0  0  0  0  0  0  0  0  0  0
   28.8840   48.3290   -7.4810 C   0  0  0  0  0  0  0  0  0  0  0  0
   29.4070   48.3230   -6.2300 N   0  0  0  0  0  0  0  0  0  0  0  0
   29.9710   47.0690   -5.5820 C   0  0  0  0  0  0  0  0  0  0  0  0
   28.8880   46.2570   -4.9180 C   0  0  2  0  0  0  0  0  0  0  0  0
   28.4890   47.0330   -3.6190 O   0  0  0  0  0  0  0  0  0  0  0  0
   27.9670   46.1850   -2.7480 C   0  0  0  0  0  0  0  0  0  0  0  0
   28.2380   44.7700   -3.3000 C   0  0  0  0  0  0  0  0  0  0  0  0
   29.2100   45.0160   -4.4170 C   0  0  0  0  0  0  0  0  0  0  0  0
   29.4120   49.4600   -5.5660 C   0  0  0  0  0  0  0  0  0  0  0  0
   28.9460   50.6220   -6.0660 N   0  0  0  0  0  0  0  0  0  0  0  0
  2  1  1  0
  3  2  1  0
  4  3  1  0
  5  4  1  0
  6  5  1  0
  7  6  1  0
  7  3  1  0
  8  7  1  0
  9  8  1  0
 10  9  1  1
 11 10  1  0
 12 11  1  0
 13 12  1  0
 14 13  1  0
 14 10  1  0
 15  8  1  0
 16 15  1  0
 16  2  1  0
M  END
$$$$
