
     RDKit          3D

 34 36  0  0  0  0  0  0  0  0999 V2000
    9.3800    1.4240   21.1060 O   0  0  0  0  0  0  0  0  0  0  0  0
    8.3210    1.4150   21.7280 C   0  0  0  0  0  0  0  0  0  0  0  0
    7.2770    0.3160   21.4760 C   0  0  1  0  0  0  0  0  0  0  0  0
    6.5870    0.4900   20.1330 C   0  0  0  0  0  0  0  0  0  0  0  0
    5.3790    1.1640   20.0390 C   0  0  0  0  0  0  0  0  0  0  0  0
    4.8530    1.4820   18.8010 C   0  0  0  0  0  0  0  0  0  0  0  0
    5.5590    1.0960   17.6760 C   0  0  0  0  0  0  0  0  0  0  0  0
    6.7170    0.4280   17.7270 N   0  0  0  0  0  0  0  0  0  0  0  0
    7.2020    0.1360   18.9390 C   0  0  0  0  0  0  0  0  0  0  0  0
    7.7550   -1.0620   21.7610 N   0  0  0  0  0  0  0  0  0  0  0  0
    8.9290   -1.2390   22.5700 C   0  0  0  0  0  0  0  0  0  0  0  0
   10.2900   -1.2880   22.1530 C   0  0  0  0  0  0  0  0  0  0  0  0
   10.9990   -1.3790   23.2860 C   0  0  0  0  0  0  0  0  0  0  0  0
   12.5030   -1.4280   23.4820 C   0  0  1  0  0  0  0  0  0  0  0  0
   12.8670   -2.4750   24.5340 C   0  0  0  0  0  0  0  0  0  0  0  0
   13.1840   -1.7800   22.1590 C   0  0  0  0  0  0  0  0  0  0  0  0
   13.0060   -0.0690   23.9660 C   0  0  0  0  0  0  0  0  0  0  0  0
   10.1860   -1.4030   24.3610 O   0  0  0  0  0  0  0  0  0  0  0  0
    8.8360   -1.3150   23.9200 N   0  0  0  0  0  0  0  0  0  0  0  0
    7.0280   -2.1900   21.3580 C   0  0  0  0  0  0  0  0  0  0  0  0
    5.8170   -2.0960   21.2270 O   0  0  0  0  0  0  0  0  0  0  0  0
    7.7570   -3.4900   21.1380 C   0  0  0  0  0  0  0  0  0  0  0  0
    7.0890   -4.3680   20.0870 C   0  0  0  0  0  0  0  0  0  0  0  0
    7.9610    2.3580   22.6300 N   0  0  0  0  0  0  0  0  0  0  0  0
    8.7460    3.4520   23.0660 C   0  0  0  0  0  0  0  0  0  0  0  0
    8.4700    4.7440   22.6210 C   0  0  0  0  0  0  0  0  0  0  0  0
    9.2510    5.8020   23.0520 C   0  0  0  0  0  0  0  0  0  0  0  0
   10.3010    5.5730   23.9270 C   0  0  0  0  0  0  0  0  0  0  0  0
   10.9890    6.6970   24.3020 O   0  0  0  0  0  0  0  0  0  0  0  0
   12.0770    6.5700   25.2240 C   0  0  0  0  0  0  0  0  0  0  0  0
   10.5840    4.2890   24.3680 C   0  0  0  0  0  0  0  0  0  0  0  0
    9.8070    3.2110   23.9600 C   0  0  0  0  0  0  0  0  0  0  0  0
   10.0670    1.8440   24.5440 C   0  0  0  0  0  0  0  0  0  0  0  0
    8.3220   -3.7330   18.9780 S   0  0  0  0  0  0  0  0  0  0  0  0
  2  1  2  0
  3  2  1  6
  4  3  1  0
  5  4  2  0
  6  5  1  0
  7  6  2  0
  8  7  1  0
  9  8  2  0
  9  4  1  0
 10  3  1  0
 11 10  1  0
 12 11  1  0
 13 12  2  0
 14 13  1  0
 14 15  1  1
 16 14  1  0
 17 14  1  0
 18 13  1  0
 19 18  1  0
 19 11  2  0
 20 10  1  0
 21 20  2  0
 22 20  1  0
 23 22  1  0
 24  2  1  0
 25 24  1  0
 26 25  2  0
 27 26  1  0
 28 27  2  0
 29 28  1  0
 30 29  1  0
 31 28  1  0
 32 31  2  0
 32 25  1  0
 33 32  1  0
 23 34  1  0
M  END
