
     RDKit          3D

 14 15  0  0  0  0  0  0  0  0999 V2000
   27.5770   57.8080  -10.7310 C   0  0  0  0  0  0  0  0  0  0  0  0
   28.2040   56.7700   -9.9060 N   0  0  0  0  0  0  0  0  0  0  0  0
   27.3420   56.3770   -8.7890 C   0  0  0  0  0  0  0  0  0  0  0  0
   28.0200   55.3470   -7.9610 C   0  0  0  0  0  0  0  0  0  0  0  0
   28.0880   54.0080   -8.2490 C   0  0  0  0  0  0  0  0  0  0  0  0
   28.7630   53.4120   -7.2430 N   0  0  0  0  0  0  0  0  0  0  0  0
   29.1560   54.3070   -6.2910 N   0  0  0  0  0  0  0  0  0  0  0  0
   28.7080   55.4700   -6.7340 C   0  0  0  0  0  0  0  0  0  0  0  0
   29.0580   52.0250   -7.0880 C   0  0  1  0  0  0  0  0  0  0  0  0
   29.8460   51.6060   -6.0260 C   0  0  0  0  0  0  0  0  0  0  0  0
   29.9620   50.2570   -5.7460 C   0  0  0  0  0  0  0  0  0  0  0  0
   29.3260   49.3310   -6.5360 C   0  0  0  0  0  0  0  0  0  0  0  0
   28.5640   49.7500   -7.6120 C   0  0  0  0  0  0  0  0  0  0  0  0
   28.4290   51.0990   -7.8940 C   0  0  0  0  0  0  0  0  0  0  0  0
  2  1  1  0
  3  2  1  0
  4  3  1  0
  5  4  1  0
  6  5  1  0
  7  6  1  0
  8  7  1  0
  8  4  1  0
  9  6  1  1
 10  9  1  0
 11 10  1  0
 12 11  1  0
 13 12  1  0
 14 13  1  0
 14  9  1  0
M  END
$$$$
