
     RDKit          3D

 24 27  0  0  0  0  0  0  0  0999 V2000
   13.7300   -2.0190   21.0650 Cl  0  0  0  0  0  0  0  0  0  0  0  0
   12.7790   -0.8840   21.9840 C   0  0  0  0  0  0  0  0  0  0  0  0
   13.4170    0.1460   22.6450 C   0  0  0  0  0  0  0  0  0  0  0  0
   12.6740    1.0020   23.4390 C   0  0  0  0  0  0  0  0  0  0  0  0
   11.4150   -1.0720   22.0770 C   0  0  0  0  0  0  0  0  0  0  0  0
   10.6560   -0.2200   22.8770 C   0  0  0  0  0  0  0  0  0  0  0  0
   11.3060    0.8050   23.5560 C   0  0  0  0  0  0  0  0  0  0  0  0
   10.6360    1.6190   24.4270 O   0  0  0  0  0  0  0  0  0  0  0  0
    9.7100    0.8770   25.2380 C   0  0  0  0  0  0  0  0  0  0  0  0
    8.6290    0.1850   24.4370 C   0  0  0  0  0  0  0  0  0  0  0  0
    9.1580   -0.3660   23.0680 C   0  0  1  0  0  0  0  0  0  0  0  0
    8.3970    0.2870   21.9130 C   0  0  0  0  0  0  0  0  0  0  0  0
    8.9290    1.0820   21.1400 O   0  0  0  0  0  0  0  0  0  0  0  0
    7.0750   -0.0440   21.8390 N   0  0  0  0  0  0  0  0  0  0  0  0
    6.1200    0.6670   21.0950 C   0  0  0  0  0  0  0  0  0  0  0  0
    5.1440    1.4090   21.7320 C   0  0  0  0  0  0  0  0  0  0  0  0
    5.0520    1.5580   23.2280 C   0  0  0  0  0  0  0  0  0  0  0  0
    6.2400    0.5920   19.6840 C   0  0  0  0  0  0  0  0  0  0  0  0
    7.0760   -0.0140   18.8550 N   0  0  0  0  0  0  0  0  0  0  0  0
    6.6920    0.3440   17.5650 N   0  0  0  0  0  0  0  0  0  0  0  0
    5.6540    1.1300   17.6570 C   0  0  0  0  0  0  0  0  0  0  0  0
    5.3130    1.3220   18.9590 N   0  0  0  0  0  0  0  0  0  0  0  0
    4.3100    2.0540   19.5610 C   0  0  0  0  0  0  0  0  0  0  0  0
    4.2010    2.1050   20.8970 C   0  0  0  0  0  0  0  0  0  0  0  0
  2  1  1  0
  3  2  2  0
  4  3  1  0
  5  2  1  0
  6  5  2  0
  7  6  1  0
  7  4  2  0
  8  7  1  0
  9  8  1  0
 10  9  1  0
 11 10  1  0
 11  6  1  0
 11 12  1  6
 13 12  2  0
 14 12  1  0
 15 14  1  0
 16 15  2  0
 17 16  1  0
 18 15  1  0
 19 18  2  0
 20 19  1  0
 21 20  2  0
 22 21  1  0
 22 18  1  0
 23 22  1  0
 24 23  2  0
 24 16  1  0
M  END
