
     RDKit          3D

  4  3  0  0  0  0  0  0  0  0999 V2000
    6.9980   -3.4560  -15.6310 N   0  0  0  0  0  0  0  0  0  0  0  0
    6.0130   -4.4320  -15.0590 C   0  0  0  0  0  0  0  0  0  0  0  0
    6.5240   -5.0760  -13.7750 C   0  0  0  0  0  0  0  0  0  0  0  0
    5.7370   -5.4580  -12.8970 O   0  0  0  0  0  0  0  0  0  0  0  0
  2  1  1  0
  3  2  1  0
  4  3  1  0
M  END
