
     RDKit          3D

 12 12  0  0  0  0  0  0  0  0999 V2000
   30.8890   45.9550   -8.6290 O   0  0  0  0  0  0  0  0  0  0  0  0
   31.7140   46.1640   -7.7650 C   0  0  0  0  0  0  0  0  0  0  0  0
   32.9770   46.4780   -7.9970 O   0  0  0  0  0  0  0  0  0  0  0  0
   31.3510   46.1120   -6.3070 C   0  0  1  0  0  0  0  0  0  0  0  0
   31.1240   47.5290   -5.7530 C   0  0  0  0  0  0  0  0  0  0  0  0
   30.7150   47.4520   -4.2840 C   0  0  0  0  0  0  0  0  0  0  0  0
   30.0810   45.2710   -6.1130 C   0  0  0  0  0  0  0  0  0  0  0  0
   29.7330   45.2030   -4.6420 C   0  0  0  0  0  0  0  0  0  0  0  0
   29.5640   46.5510   -4.0920 N   0  0  0  0  0  0  0  0  0  0  0  0
   28.4490   46.9240   -3.3470 C   0  0  0  0  0  0  0  0  0  0  0  0
   28.4770   48.0290   -2.7940 O   0  0  0  0  0  0  0  0  0  0  0  0
   27.4050   46.0980   -3.2390 N   0  0  0  0  0  0  0  0  0  0  0  0
  2  1  1  0
  3  2  2  0
  4  2  1  6
  5  4  1  0
  6  5  1  0
  7  4  1  0
  8  7  1  0
  9  8  1  0
  9  6  1  0
 10  9  1  0
 11 10  2  0
 12 10  1  0
M  END
