
     RDKit          3D

 34 36  0  0  0  0  0  0  0  0999 V2000
    7.5680   -1.2130   21.7880 N   0  0  0  0  0  0  0  0  0  0  0  0
    7.2730   -4.4360   20.2790 C   0  0  0  0  0  0  0  0  0  0  0  0
    5.6520   -2.2370   21.2020 O   0  0  0  0  0  0  0  0  0  0  0  0
    7.4930   -3.7030   21.5620 C   0  0  0  0  0  0  0  0  0  0  0  0
    7.6740    2.1090   22.7160 N   0  0  0  0  0  0  0  0  0  0  0  0
    9.0950    1.4100   21.0690 O   0  0  0  0  0  0  0  0  0  0  0  0
    6.8230   -2.3610   21.5150 C   0  0  0  0  0  0  0  0  0  0  0  0
    6.6900    0.2920   17.6690 N   0  0  0  0  0  0  0  0  0  0  0  0
    7.0810    0.1360   21.4300 C   0  0  1  0  0  0  0  0  0  0  0  0
   10.0580   -1.1830   24.3380 N   0  0  0  0  0  0  0  0  0  0  0  0
    8.0710    1.2720   21.7330 C   0  0  0  0  0  0  0  0  0  0  0  0
    8.7890   -1.1710   23.8380 N   0  0  0  0  0  0  0  0  0  0  0  0
    8.2800    3.3750   22.9480 C   0  0  0  0  0  0  0  0  0  0  0  0
    9.5140    3.4400   23.6180 C   0  0  0  0  0  0  0  0  0  0  0  0
   10.2240    2.2010   24.1190 C   0  0  0  0  0  0  0  0  0  0  0  0
    9.5610    1.4810   25.2910 C   0  0  0  0  0  0  0  0  0  0  0  0
   10.0990    4.6900   23.8000 C   0  0  0  0  0  0  0  0  0  0  0  0
    9.4900    5.8360   23.3160 C   0  0  0  0  0  0  0  0  0  0  0  0
    8.2810    5.7490   22.6500 C   0  0  0  0  0  0  0  0  0  0  0  0
    7.6410    4.5260   22.4700 C   0  0  0  0  0  0  0  0  0  0  0  0
    6.2750    4.4640   21.8330 C   0  0  0  0  0  0  0  0  0  0  0  0
    6.4380    0.3020   20.0660 C   0  0  0  0  0  0  0  0  0  0  0  0
    7.1100   -0.0310   18.8980 C   0  0  0  0  0  0  0  0  0  0  0  0
    5.5380    0.9660   17.5740 C   0  0  0  0  0  0  0  0  0  0  0  0
    4.7730    1.3180   18.6680 C   0  0  0  0  0  0  0  0  0  0  0  0
    5.2310    0.9720   19.9260 C   0  0  0  0  0  0  0  0  0  0  0  0
    8.7770   -1.2860   22.5060 C   0  0  0  0  0  0  0  0  0  0  0  0
   10.0790   -1.3950   22.0870 C   0  0  0  0  0  0  0  0  0  0  0  0
   10.8400   -1.3240   23.2690 C   0  0  0  0  0  0  0  0  0  0  0  0
   12.3480   -1.3980   23.4360 C   0  0  0  0  0  0  0  0  0  0  0  0
   12.8760   -0.0850   24.0150 C   0  0  0  0  0  0  0  0  0  0  0  0
   12.7150   -2.5220   24.4080 C   0  0  0  0  0  0  0  0  0  0  0  0
   13.0080   -1.6590   22.0790 C   0  0  0  0  0  0  0  0  0  0  0  0
    8.2580   -3.7440   18.9240 S   0  0  0  0  0  0  0  0  0  0  0  0
  4  2  1  0
  7  4  1  0
  7  3  2  0
  7  1  1  0
  9  1  1  0
  9 11  1  6
 11  6  2  0
 11  5  1  0
 12 10  1  0
 13  5  1  0
 14 13  2  0
 15 14  1  0
 16 15  1  0
 17 14  1  0
 18 17  2  0
 19 18  1  0
 20 13  1  0
 20 19  2  0
 21 20  1  0
 22  9  1  0
 23 22  1  0
 23  8  2  0
 24  8  1  0
 25 24  2  0
 26 25  1  0
 26 22  2  0
 27  1  1  0
 27 12  1  0
 28 27  2  0
 29 28  1  0
 29 10  2  0
 30 29  1  0
 30 31  1  0
 32 30  1  0
 33 30  1  0
  2 34  1  0
M  END
