
     RDKit          3D

 16 17  0  0  0  0  0  0  0  0999 V2000
   33.1890   45.9030   -8.1000 O   0  0  0  0  0  0  0  0  0  0  0  0
   32.1200   45.4860   -7.7110 C   0  0  1  0  0  0  0  0  0  0  0  0
   31.0870   45.6630   -8.3900 O   0  0  0  0  0  0  0  0  0  0  0  0
   32.0710   44.6470   -6.4230 C   0  0  0  0  0  0  0  0  0  0  0  0
   32.0670   45.4510   -5.1850 C   0  0  0  0  0  0  0  0  0  0  0  0
   33.3950   46.1410   -5.0590 C   0  0  1  0  0  0  0  0  0  0  0  0
   34.4900   45.3640   -4.6860 N   0  0  0  0  0  0  0  0  0  0  0  0
   35.7990   45.9770   -4.6010 C   0  0  2  0  0  0  0  0  0  0  0  0
   36.8740   45.2220   -4.2040 C   0  0  0  0  0  0  0  0  0  0  0  0
   38.1420   45.8340   -4.0800 C   0  0  0  0  0  0  0  0  0  0  0  0
   38.2640   47.1740   -4.3580 C   0  0  0  0  0  0  0  0  0  0  0  0
   37.1940   47.9450   -4.7730 C   0  0  0  0  0  0  0  0  0  0  0  0
   35.9340   47.3480   -4.8690 C   0  0  0  0  0  0  0  0  0  0  0  0
   34.8190   48.1540   -5.2970 N   0  0  0  0  0  0  0  0  0  0  0  0
   33.5390   47.5320   -5.4030 C   0  0  0  0  0  0  0  0  0  0  0  0
   32.6220   48.1610   -5.7220 O   0  0  0  0  0  0  0  0  0  0  0  0
  2  1  1  6
  3  2  1  0
  4  2  1  0
  5  4  1  0
  6  5  1  6
  7  6  1  0
  8  7  1  0
  8  9  1  1
 10  9  1  0
 11 10  1  0
 12 11  1  0
 13 12  1  0
 13  8  1  0
 14 13  1  0
 15 14  1  0
 15  6  1  0
 16 15  1  0
M  CHG  1   1  -1
M  END
$$$$
