
     RDKit          3D

 16 18  0  0  0  0  0  0  0  0999 V2000
   31.4730   54.8330   -9.5030 C   0  0  0  0  0  0  0  0  0  0  0  0
   31.9530   54.0920   -8.4580 C   0  0  0  0  0  0  0  0  0  0  0  0
   30.9100   53.5920   -7.7930 O   0  0  0  0  0  0  0  0  0  0  0  0
   29.7650   53.9590   -8.3970 C   0  0  0  0  0  0  0  0  0  0  0  0
   28.3590   53.5680   -7.9410 C   0  0  0  0  0  0  0  0  0  0  0  0
   28.0380   52.2280   -8.3930 N   0  0  0  0  0  0  0  0  0  0  0  0
   28.5370   51.0960   -7.6270 C   0  0  0  0  0  0  0  0  0  0  0  0
   28.9310   51.2320   -6.3970 N   0  0  0  0  0  0  0  0  0  0  0  0
   29.3860   50.2260   -5.7010 C   0  0  0  0  0  0  0  0  0  0  0  0
   29.4450   49.0010   -6.1760 N   0  0  0  0  0  0  0  0  0  0  0  0
   29.0360   48.7940   -7.4200 C   0  0  0  0  0  0  0  0  0  0  0  0
   28.9540   47.7030   -8.1670 N   0  0  0  0  0  0  0  0  0  0  0  0
   28.4580   48.0700   -9.3290 C   0  0  0  0  0  0  0  0  0  0  0  0
   28.2130   49.3450   -9.3710 N   0  0  0  0  0  0  0  0  0  0  0  0
   28.5500   49.8290   -8.1720 C   0  0  0  0  0  0  0  0  0  0  0  0
   30.0860   54.7520   -9.4680 C   0  0  0  0  0  0  0  0  0  0  0  0
  2  1  2  0
  3  2  1  0
  4  3  1  0
  5  4  1  0
  6  5  1  0
  7  6  1  0
  8  7  2  0
  9  8  1  0
 10  9  2  0
 11 10  1  0
 12 11  1  0
 13 12  1  0
 14 13  2  0
 15 11  2  0
 15 14  1  0
 15  7  1  0
 16  4  2  0
 16  1  1  0
M  END
