
     RDKit          3D

 49 53  0  0  0  0  0  0  0  0999 V2000
   10.1990    0.4590   23.0780 N   0  0  0  0  0  0  0  0  0  0  0  0
   10.5510   -0.7690   22.3550 C   0  0  2  0  0  0  0  0  0  0  0  0
    7.3780   -2.6270   21.1730 C   0  0  2  0  0  0  0  0  0  0  0  0
    7.5510   -4.0400   20.5300 C   0  0  2  0  0  0  0  0  0  0  0  0
    6.2860   -1.8280   20.4120 C   0  0  0  0  0  0  0  0  0  0  0  0
    6.2530   -0.3260   20.7260 C   0  0  0  0  0  0  0  0  0  0  0  0
    4.8430    0.2670   20.6590 C   0  0  0  0  0  0  0  0  0  0  0  0
    6.2420   -4.8460   20.6070 C   0  0  0  0  0  0  0  0  0  0  0  0
    4.8200   -6.3470   22.0400 C   0  0  1  0  0  0  0  0  0  0  0  0
    4.4670   -6.6800   23.4870 C   0  0  0  0  0  0  0  0  0  0  0  0
    3.6240   -5.6840   22.7250 C   0  0  0  0  0  0  0  0  0  0  0  0
    9.5150    1.5470   22.5400 C   0  0  0  0  0  0  0  0  0  0  0  0
    9.1400    2.8170   23.3820 C   0  0  2  0  0  0  0  0  0  0  0  0
   10.8160    4.5770   23.6130 C   0  0  0  0  0  0  0  0  0  0  0  0
   11.5920    5.7820   23.0300 C   0  0  1  0  0  0  0  0  0  0  0  0
    7.5850    3.1050   23.3800 C   0  0  1  0  0  0  0  0  0  0  0  0
    9.2480   -1.5830   22.3530 C   0  0  0  0  0  0  0  0  0  0  0  0
    8.6950   -1.8760   23.4060 O   0  0  0  0  0  0  0  0  0  0  0  0
    5.9870   -5.5580   21.7720 N   0  0  0  0  0  0  0  0  0  0  0  0
    9.8350    3.9700   22.8490 N   0  0  0  0  0  0  0  0  0  0  0  0
   12.1270    6.3500   24.2640 N   0  0  0  0  0  0  0  0  0  0  0  0
    8.6550   -1.9150   21.1490 N   0  0  0  0  0  0  0  0  0  0  0  0
   13.2350    7.3040   26.6600 N   0  0  0  0  0  0  0  0  0  0  0  0
   13.0980   10.0700   27.2670 N   0  0  0  0  0  0  0  0  0  0  0  0
   11.6220   -1.4860   23.2090 C   0  0  1  0  0  0  0  0  0  0  0  0
    7.0480    3.5190   22.0040 C   0  0  0  0  0  0  0  0  0  0  0  0
   12.3000    7.7010   24.4320 C   0  0  0  0  0  0  0  0  0  0  0  0
    6.8440    1.8590   23.8770 C   0  0  0  0  0  0  0  0  0  0  0  0
    7.2570    4.2660   24.3420 C   0  0  0  0  0  0  0  0  0  0  0  0
   12.9620   -1.5370   22.4840 C   0  0  0  0  0  0  0  0  0  0  0  0
   13.6240   -0.1900   22.7850 C   0  0  0  0  0  0  0  0  0  0  0  0
   12.6910    5.2210   22.0560 C   0  0  2  0  0  0  0  0  0  0  0  0
   13.5790    4.1420   22.6970 C   0  0  0  0  0  0  0  0  0  0  0  0
   14.7640    3.6850   21.8460 C   0  0  0  0  0  0  0  0  0  0  0  0
   15.5290    4.8090   21.1520 C   0  0  0  0  0  0  0  0  0  0  0  0
   14.5800    5.7700   20.4630 C   0  0  0  0  0  0  0  0  0  0  0  0
   13.5930    6.3250   21.4750 C   0  0  0  0  0  0  0  0  0  0  0  0
   12.7860    8.2100   25.7570 C   0  0  0  0  0  0  0  0  0  0  0  0
   13.6310    7.7950   27.8560 C   0  0  0  0  0  0  0  0  0  0  0  0
   13.5580    9.1700   28.1570 C   0  0  0  0  0  0  0  0  0  0  0  0
   12.6900    9.5900   26.0660 C   0  0  0  0  0  0  0  0  0  0  0  0
    8.5360   -4.7110   21.2600 O   0  0  0  0  0  0  0  0  0  0  0  0
    5.4560   -4.8010   19.6650 O   0  0  0  0  0  0  0  0  0  0  0  0
    9.2530    1.5080   21.3370 O   0  0  0  0  0  0  0  0  0  0  0  0
   11.0740    4.1390   24.7580 O   0  0  0  0  0  0  0  0  0  0  0  0
   12.0310    8.4920   23.5420 O   0  0  0  0  0  0  0  0  0  0  0  0
   11.8330   -0.5770   24.4310 C   0  0  2  0  0  0  0  0  0  0  0  0
   10.5900    0.3160   24.4840 C   0  0  0  0  0  0  0  0  0  0  0  0
   13.1240    0.2100   24.1760 C   0  0  0  0  0  0  0  0  0  0  0  0
  2  1  1  0
  4  3  1  0
  3  5  1  6
  6  5  1  0
  7  6  1  0
  8  4  1  0
 10  9  1  0
 11 10  1  0
 11  9  1  0
 12  1  1  0
 13 12  1  0
 15 14  1  0
 16 13  1  0
  2 17  1  1
 18 17  2  0
  9 19  1  1
 19  8  1  0
 20 14  1  0
 13 20  1  6
 15 21  1  1
 22  3  1  0
 22 17  1  0
 25  2  1  0
 16 26  1  6
 27 21  1  0
 28 16  1  0
 29 16  1  0
 25 30  1  6
 31 30  1  0
 32 15  1  0
 32 33  1  1
 34 33  1  0
 35 34  1  0
 36 35  1  0
 37 32  1  0
 37 36  1  0
 38 27  1  0
 38 23  2  0
 39 23  1  0
 40 39  2  0
 40 24  1  0
 41 38  1  0
 41 24  2  0
  4 42  1  1
 43  8  2  0
 44 12  2  0
 45 14  2  0
 46 27  2  0
 47 25  1  0
 48  1  1  0
 47 48  1  6
 49 47  1  0
 49 31  1  0
M  END
$$$$
