
     RDKit          3D

 16 17  0  0  0  0  0  0  0  0999 V2000
   26.6840   57.0910   -7.8920 O   0  0  0  0  0  0  0  0  0  0  0  0
   27.6420   57.0230   -8.6630 C   0  0  0  0  0  0  0  0  0  0  0  0
   27.5300   57.4540  -10.1240 C   0  0  1  0  0  0  0  0  0  0  0  0
   26.1160   57.2590  -10.6000 C   0  0  0  0  0  0  0  0  0  0  0  0
   27.9950   58.8950  -10.2940 C   0  0  0  0  0  0  0  0  0  0  0  0
   28.8380   56.5810   -8.2780 N   0  0  0  0  0  0  0  0  0  0  0  0
   29.0840   56.1260   -6.9260 C   0  0  0  0  0  0  0  0  0  0  0  0
   28.9530   54.6270   -6.8480 C   0  0  0  0  0  0  0  0  0  0  0  0
   28.4530   53.8840   -7.8640 N   0  0  0  0  0  0  0  0  0  0  0  0
   28.4330   52.5740   -7.4360 C   0  0  0  0  0  0  0  0  0  0  0  0
   28.9670   52.5930   -6.1480 C   0  0  0  0  0  0  0  0  0  0  0  0
   29.2800   53.9050   -5.7940 N   0  0  0  0  0  0  0  0  0  0  0  0
   28.0010   51.4020   -8.0370 C   0  0  0  0  0  0  0  0  0  0  0  0
   28.1420   50.2220   -7.3220 C   0  0  0  0  0  0  0  0  0  0  0  0
   28.6930   50.2220   -6.0410 C   0  0  0  0  0  0  0  0  0  0  0  0
   29.1050   51.4020   -5.4400 C   0  0  0  0  0  0  0  0  0  0  0  0
  2  1  1  0
  3  2  1  0
  3  4  1  1
  5  3  1  0
  6  2  1  0
  7  6  1  0
  8  7  1  0
  9  8  1  0
 10  9  1  0
 11 10  1  0
 12 11  1  0
 12  8  1  0
 13 10  1  0
 14 13  1  0
 15 14  1  0
 16 15  1  0
 16 11  1  0
M  END
$$$$
