
     RDKit          3D

 15 16  0  0  0  0  0  0  0  0999 V2000
   32.0190   44.6160   -5.8040 C   0  0  0  0  0  0  0  0  0  0  0  0
   31.6570   46.0040   -5.4200 C   0  0  2  0  0  0  0  0  0  0  0  0
   31.9990   46.6670   -4.3780 O   0  0  0  0  0  0  0  0  0  0  0  0
   31.5190   47.8670   -4.3770 N   0  0  0  0  0  0  0  0  0  0  0  0
   30.7190   47.9900   -5.4080 C   0  0  0  0  0  0  0  0  0  0  0  0
   30.8190   46.7870   -6.1190 C   0  0  2  0  0  0  0  0  0  0  0  0
   30.1340   46.3120   -7.3490 C   0  0  0  0  0  0  0  0  0  0  0  0
   28.9650   45.8900   -7.2530 O   0  0  0  0  0  0  0  0  0  0  0  0
   30.7620   46.3370   -8.4260 O   0  0  0  0  0  0  0  0  0  0  0  0
   29.9000   49.2020   -5.7130 C   0  0  0  0  0  0  0  0  0  0  0  0
   29.7030   50.1210   -4.7360 C   0  0  0  0  0  0  0  0  0  0  0  0
   28.9680   51.2440   -4.9820 C   0  0  0  0  0  0  0  0  0  0  0  0
   28.4230   51.3860   -6.2250 C   0  0  0  0  0  0  0  0  0  0  0  0
   28.6510   50.4620   -7.2220 C   0  0  0  0  0  0  0  0  0  0  0  0
   29.3830   49.3480   -6.9570 C   0  0  0  0  0  0  0  0  0  0  0  0
  2  1  1  1
  3  2  1  0
  4  3  1  0
  5  4  1  0
  6  5  1  0
  6  2  1  0
  6  7  1  1
  8  7  1  0
  9  7  1  0
 10  5  1  0
 11 10  1  0
 12 11  1  0
 13 12  1  0
 14 13  1  0
 15 14  1  0
 15 10  1  0
M  CHG  1   9  -1
M  END
$$$$
