
     RDKit          3D

 20 22  0  0  0  0  0  0  0  0999 V2000
    8.9280    0.9580   21.2980 O   0  0  0  0  0  0  0  0  0  0  0  0
    8.5620   -0.1740   21.6040 C   0  0  0  0  0  0  0  0  0  0  0  0
    9.0750   -0.8860   22.8420 C   0  0  0  0  0  0  0  0  0  0  0  0
   10.5520   -0.6350   23.0370 C   0  0  2  0  0  0  0  0  0  0  0  0
   10.9970    0.3590   23.8990 C   0  0  0  0  0  0  0  0  0  0  0  0
   12.3310    0.7390   23.9150 C   0  0  0  0  0  0  0  0  0  0  0  0
   13.2470    0.1090   23.0880 C   0  0  0  0  0  0  0  0  0  0  0  0
   11.4810   -1.2960   22.2390 C   0  0  0  0  0  0  0  0  0  0  0  0
   12.8090   -0.9170   22.2780 C   0  0  0  0  0  0  0  0  0  0  0  0
   13.9550   -1.7610   21.2730 Cl  0  0  0  0  0  0  0  0  0  0  0  0
    7.6910   -0.9000   20.8420 N   0  0  0  0  0  0  0  0  0  0  0  0
    7.1040   -0.3980   19.6860 C   0  0  0  0  0  0  0  0  0  0  0  0
    6.0440    0.4780   19.7490 N   0  0  0  0  0  0  0  0  0  0  0  0
    5.7540    0.8250   18.4340 C   0  0  0  0  0  0  0  0  0  0  0  0
    6.5770    0.2070   17.5850 N   0  0  0  0  0  0  0  0  0  0  0  0
    7.3980   -0.5490   18.3720 C   0  0  0  0  0  0  0  0  0  0  0  0
    5.3290    0.9860   20.8200 C   0  0  0  0  0  0  0  0  0  0  0  0
    4.3160    1.8500   20.5900 C   0  0  0  0  0  0  0  0  0  0  0  0
    3.9930    2.2290   19.2620 C   0  0  0  0  0  0  0  0  0  0  0  0
    4.6920    1.7290   18.2020 C   0  0  0  0  0  0  0  0  0  0  0  0
  2  1  1  0
  3  2  1  0
  4  3  1  6
  5  4  1  0
  6  5  1  0
  7  6  1  0
  8  4  1  0
  9  8  1  0
  9  7  1  0
 10  9  1  0
 11  2  1  0
 12 11  1  0
 13 12  1  0
 14 13  1  0
 15 14  1  0
 16 15  1  0
 16 12  1  0
 17 13  1  0
 18 17  1  0
 19 18  1  0
 20 19  1  0
 20 14  1  0
M  END
$$$$
