
     RDKit          3D

 26 28  0  0  0  0  0  0  0  0999 V2000
    8.3270   -0.1510   21.9400 N   0  0  0  0  0  0  0  0  0  0  0  0
    6.4430    1.0590   24.8160 C   0  0  0  0  0  0  0  0  0  0  0  0
    7.0980   -0.1640   24.4970 O   0  0  0  0  0  0  0  0  0  0  0  0
    8.5060   -0.0450   24.4000 C   0  0  0  0  0  0  0  0  0  0  0  0
    5.0580    1.8960   18.5900 N   0  0  0  0  0  0  0  0  0  0  0  0
    8.1680    1.6540   20.6080 O   0  0  0  0  0  0  0  0  0  0  0  0
    8.9170    0.5610   23.0690 C   0  0  1  0  0  0  0  0  0  0  0  0
    6.7640    1.1290   17.2500 O   0  0  0  0  0  0  0  0  0  0  0  0
    8.0210    0.4480   20.7860 C   0  0  0  0  0  0  0  0  0  0  0  0
    7.5020   -0.4540   19.6910 C   0  0  0  0  0  0  0  0  0  0  0  0
    6.0730   -0.0930   19.2640 C   0  0  2  0  0  0  0  0  0  0  0  0
    6.0250    1.0190   18.2220 C   0  0  0  0  0  0  0  0  0  0  0  0
    4.4840    1.5510   19.8130 C   0  0  0  0  0  0  0  0  0  0  0  0
    3.4620    2.1810   20.5200 C   0  0  0  0  0  0  0  0  0  0  0  0
    3.0800    1.6740   21.7510 C   0  0  0  0  0  0  0  0  0  0  0  0
    3.7340    0.5690   22.2350 C   0  0  0  0  0  0  0  0  0  0  0  0
    4.7440   -0.0770   21.5610 C   0  0  0  0  0  0  0  0  0  0  0  0
    5.1160    0.4140   20.3120 C   0  0  0  0  0  0  0  0  0  0  0  0
   10.4280    0.6480   22.9640 C   0  0  0  0  0  0  0  0  0  0  0  0
   11.0880    1.8230   23.2970 C   0  0  0  0  0  0  0  0  0  0  0  0
   12.4610    1.9310   23.1480 C   0  0  0  0  0  0  0  0  0  0  0  0
   13.2010    0.8590   22.6720 C   0  0  0  0  0  0  0  0  0  0  0  0
   12.5370   -0.3040   22.3400 C   0  0  0  0  0  0  0  0  0  0  0  0
   11.1660   -0.4300   22.4830 C   0  0  0  0  0  0  0  0  0  0  0  0
   13.5270   -1.7610   21.6280 Br  0  0  0  0  0  0  0  0  0  0  0  0
    3.3520    0.0700   23.4430 F   0  0  0  0  0  0  0  0  0  0  0  0
  3  2  1  0
  4  3  1  0
  7  4  1  1
  7  1  1  0
  9  6  2  0
  9  1  1  0
 10  9  1  0
 11 10  1  1
 12  5  1  0
 12 11  1  0
 12  8  2  0
 13  5  1  0
 14 13  2  0
 15 14  1  0
 16 15  2  0
 17 16  1  0
 18 17  2  0
 18 13  1  0
 18 11  1  0
 19  7  1  0
 20 19  2  0
 21 20  1  0
 22 21  2  0
 23 22  1  0
 24 19  1  0
 24 23  2  0
 25 23  1  0
 26 16  1  0
M  END
