
     RDKit          3D

 32 34  0  0  0  0  0  0  0  0999 V2000
    7.4710   -1.2820   21.7620 N   0  0  0  0  0  0  0  0  0  0  0  0
    7.0440   -4.3180   20.0280 C   0  0  0  0  0  0  0  0  0  0  0  0
    5.4680   -2.2070   21.2870 O   0  0  0  0  0  0  0  0  0  0  0  0
    7.2830   -3.7110   21.3990 C   0  0  0  0  0  0  0  0  0  0  0  0
    7.9020    2.0830   22.5950 N   0  0  0  0  0  0  0  0  0  0  0  0
    9.1440    1.2140   20.9370 O   0  0  0  0  0  0  0  0  0  0  0  0
    6.6600   -2.3470   21.4940 C   0  0  0  0  0  0  0  0  0  0  0  0
    6.4640    0.2480   17.6800 N   0  0  0  0  0  0  0  0  0  0  0  0
    9.7710    5.3880   24.4060 O   0  0  0  0  0  0  0  0  0  0  0  0
    7.0650    0.1080   21.4190 C   0  0  1  0  0  0  0  0  0  0  0  0
    8.1510    1.1710   21.6530 C   0  0  0  0  0  0  0  0  0  0  0  0
    8.8090    3.1990   22.8480 C   0  0  0  0  0  0  0  0  0  0  0  0
    8.0570    4.5230   22.8990 C   0  0  0  0  0  0  0  0  0  0  0  0
    9.0470    5.6290   23.1840 C   0  0  0  0  0  0  0  0  0  0  0  0
   10.5190    4.1600   24.3410 C   0  0  0  0  0  0  0  0  0  0  0  0
    9.6120    2.9710   24.1230 C   0  0  0  0  0  0  0  0  0  0  0  0
    6.3600    0.3130   20.0880 C   0  0  0  0  0  0  0  0  0  0  0  0
    6.9260   -0.0970   18.8870 C   0  0  0  0  0  0  0  0  0  0  0  0
    5.3690    1.0150   17.6410 C   0  0  0  0  0  0  0  0  0  0  0  0
    4.7130    1.4600   18.7720 C   0  0  0  0  0  0  0  0  0  0  0  0
    5.2190    1.0990   20.0050 C   0  0  0  0  0  0  0  0  0  0  0  0
    8.7050   -1.4380   22.4780 C   0  0  0  0  0  0  0  0  0  0  0  0
    9.9020   -1.6540   21.7950 C   0  0  0  0  0  0  0  0  0  0  0  0
   11.0910   -1.7710   22.4960 C   0  0  0  0  0  0  0  0  0  0  0  0
   11.1220   -1.6780   23.8870 C   0  0  0  0  0  0  0  0  0  0  0  0
    9.9180   -1.4810   24.5580 C   0  0  0  0  0  0  0  0  0  0  0  0
    8.7230   -1.3600   23.8690 C   0  0  0  0  0  0  0  0  0  0  0  0
   12.4410   -1.7420   24.6730 C   0  0  0  0  0  0  0  0  0  0  0  0
   12.5630   -0.5130   25.5750 C   0  0  0  0  0  0  0  0  0  0  0  0
   13.6620   -1.7650   23.7560 C   0  0  0  0  0  0  0  0  0  0  0  0
   12.5040   -3.0010   25.5590 C   0  0  0  0  0  0  0  0  0  0  0  0
    8.2290   -3.7130   18.7910 S   0  0  0  0  0  0  0  0  0  0  0  0
  4  2  1  0
  7  4  1  0
  7  3  2  0
  7  1  1  0
 10  1  1  0
 10 11  1  6
 11  6  2  0
 11  5  1  0
 12  5  1  0
 13 12  1  0
 14 13  1  0
 14  9  1  0
 15  9  1  0
 16 15  1  0
 16 12  1  0
 17 10  1  0
 18 17  1  0
 18  8  2  0
 19  8  1  0
 20 19  2  0
 21 20  1  0
 21 17  2  0
 22  1  1  0
 23 22  2  0
 24 23  1  0
 25 24  2  0
 26 25  1  0
 27 26  2  0
 27 22  1  0
 28 25  1  0
 28 29  1  0
 30 28  1  0
 31 28  1  0
  2 32  1  0
M  END
