
     RDKit          3D

 15 16  0  0  0  0  0  0  0  0999 V2000
   30.7150   49.5510   -2.1200 C   0  0  0  0  0  0  0  0  0  0  0  0
   29.5010   48.8340   -2.1550 O   0  0  0  0  0  0  0  0  0  0  0  0
   29.4340   47.5910   -2.8070 C   0  0  0  0  0  0  0  0  0  0  0  0
   28.3740   46.7460   -2.5550 C   0  0  0  0  0  0  0  0  0  0  0  0
   28.2340   45.5250   -3.1670 C   0  0  0  0  0  0  0  0  0  0  0  0
   29.1900   45.1140   -4.0940 C   0  0  0  0  0  0  0  0  0  0  0  0
   29.3070   44.0030   -4.8250 N   0  0  0  0  0  0  0  0  0  0  0  0
   30.3840   44.0360   -5.5480 C   0  0  0  0  0  0  0  0  0  0  0  0
   31.0250   45.2180   -5.2970 C   0  0  0  0  0  0  0  0  0  0  0  0
   32.3080   45.6670   -5.9410 C   0  0  0  0  0  0  0  0  0  0  0  0
   32.2040   46.1880   -7.3610 C   0  0  0  0  0  0  0  0  0  0  0  0
   31.2190   46.1180   -8.1210 O   0  0  0  0  0  0  0  0  0  0  0  0
   33.2310   46.7000   -7.7790 O   0  0  0  0  0  0  0  0  0  0  0  0
   30.2550   45.9320   -4.3320 C   0  0  0  0  0  0  0  0  0  0  0  0
   30.3650   47.1720   -3.7070 C   0  0  0  0  0  0  0  0  0  0  0  0
  2  1  1  0
  3  2  1  0
  4  3  1  0
  5  4  1  0
  6  5  1  0
  7  6  1  0
  8  7  1  0
  9  8  1  0
 10  9  1  0
 11 10  1  0
 12 11  1  0
 13 11  1  0
 14  9  1  0
 14  6  1  0
 15 14  1  0
 15  3  1  0
M  CHG  1  13  -1
M  END
$$$$
