
     RDKit          3D

 15 16  0  0  0  0  0  0  0  0999 V2000
    9.9960   -0.4350   24.9080 C   0  0  0  0  0  0  0  0  0  0  0  0
   11.1450   -0.3850   24.0350 N   0  0  0  0  0  0  0  0  0  0  0  0
   11.7800   -1.6150   23.6620 C   0  0  0  0  0  0  0  0  0  0  0  0
   12.7880   -1.5060   22.5570 C   0  0  0  0  0  0  0  0  0  0  0  0
   13.7420   -0.3550   22.8020 C   0  0  0  0  0  0  0  0  0  0  0  0
   12.9660    0.9770   23.0380 C   0  0  0  0  0  0  0  0  0  0  0  0
   13.5190    2.2080   22.6340 C   0  0  0  0  0  0  0  0  0  0  0  0
   12.8110    3.3940   22.8410 C   0  0  0  0  0  0  0  0  0  0  0  0
   11.5420    3.3300   23.4490 C   0  0  0  0  0  0  0  0  0  0  0  0
   10.9900    2.1160   23.8440 C   0  0  0  0  0  0  0  0  0  0  0  0
   11.7030    0.9210   23.6320 C   0  0  0  0  0  0  0  0  0  0  0  0
   10.5940    4.8310   23.7500 S   0  0  2  0  0  0  0  0  0  0  0  0
   10.0850    4.7520   25.1140 O   0  0  0  0  0  0  0  0  0  0  0  0
    9.3490    4.8700   22.9790 O   0  0  0  0  0  0  0  0  0  0  0  0
   11.5640    6.2030   23.4830 N   0  0  0  0  0  0  0  0  0  0  0  0
  2  1  1  0
  3  2  1  0
  4  3  1  0
  5  4  1  0
  6  5  1  0
  7  6  1  0
  8  7  1  0
  9  8  1  0
 10  9  1  0
 11 10  1  0
 11  6  1  0
 11  2  1  0
 12  9  1  0
 13 12  1  0
 14 12  1  0
 12 15  1  1
M  END
$$$$
