
     RDKit          3D

 20 21  0  0  0  0  0  0  0  0999 V2000
    5.7870   -4.9460   19.6090 O   0  0  0  0  0  0  0  0  0  0  0  0
    6.4590   -4.0820   20.1480 C   0  0  0  0  0  0  0  0  0  0  0  0
    7.0220   -2.9270   19.3460 C   0  0  0  0  0  0  0  0  0  0  0  0
    6.7410   -4.1150   21.4610 N   0  0  0  0  0  0  0  0  0  0  0  0
    6.2950   -5.2400   22.2950 C   0  0  0  0  0  0  0  0  0  0  0  0
    5.3200   -4.7550   23.3600 C   0  0  0  0  0  0  0  0  0  0  0  0
    7.4000   -3.0410   22.2180 C   0  0  0  0  0  0  0  0  0  0  0  0
    6.4760   -2.5120   23.3190 C   0  0  0  0  0  0  0  0  0  0  0  0
    6.0040   -3.6730   24.2080 C   0  0  1  0  0  0  0  0  0  0  0  0
    5.0830   -3.1790   25.3030 C   0  0  0  0  0  0  0  0  0  0  0  0
    3.8890   -3.0360   25.0940 O   0  0  0  0  0  0  0  0  0  0  0  0
    5.6200   -2.9490   26.5340 N   0  0  0  0  0  0  0  0  0  0  0  0
    4.8390   -2.2380   27.5420 C   0  0  0  0  0  0  0  0  0  0  0  0
    6.9360   -3.3580   26.9230 C   0  0  0  0  0  0  0  0  0  0  0  0
    7.9940   -2.4550   26.8440 C   0  0  0  0  0  0  0  0  0  0  0  0
    9.2910   -2.9050   27.0340 C   0  0  0  0  0  0  0  0  0  0  0  0
    9.5380   -4.2380   27.3120 C   0  0  0  0  0  0  0  0  0  0  0  0
    8.4850   -5.1230   27.4380 C   0  0  0  0  0  0  0  0  0  0  0  0
    7.1820   -4.6910   27.2530 C   0  0  0  0  0  0  0  0  0  0  0  0
    8.5820   -3.4320   18.5740 S   0  0  0  0  0  0  0  0  0  0  0  0
  2  1  2  0
  3  2  1  0
  4  2  1  0
  5  4  1  0
  6  5  1  0
  7  4  1  0
  8  7  1  0
  9  6  1  0
  9  8  1  0
  9 10  1  1
 11 10  2  0
 12 10  1  0
 13 12  1  0
 14 12  1  0
 15 14  2  0
 16 15  1  0
 17 16  2  0
 18 17  1  0
 19 14  1  0
 19 18  2  0
  3 20  1  0
M  END
