
     RDKit          3D

 26 28  0  0  0  0  0  0  0  0999 V2000
    6.4300    1.1030   16.7330 O   0  0  0  0  0  0  0  0  0  0  0  0
    5.8400    0.8250   17.7810 C   0  0  0  0  0  0  0  0  0  0  0  0
    6.2530   -0.1960   18.6720 C   0  0  0  0  0  0  0  0  0  0  0  0
    4.7810    1.5840   18.1960 N   0  0  0  0  0  0  0  0  0  0  0  0
    4.1660    1.4650   19.4420 C   0  0  0  0  0  0  0  0  0  0  0  0
    4.6230    0.4920   20.3640 C   0  0  0  0  0  0  0  0  0  0  0  0
    4.0380    0.4410   21.6500 C   0  0  0  0  0  0  0  0  0  0  0  0
    4.5490   -0.4530   22.7500 C   0  0  0  0  0  0  0  0  0  0  0  0
    2.9910    1.3130   21.9460 C   0  0  0  0  0  0  0  0  0  0  0  0
    2.5310    2.2310   21.0240 C   0  0  0  0  0  0  0  0  0  0  0  0
    3.1180    2.3200   19.7760 C   0  0  0  0  0  0  0  0  0  0  0  0
    5.7080   -0.4140   19.8990 C   0  0  0  0  0  0  0  0  0  0  0  0
    6.1790   -1.6290   20.6370 C   0  0  0  0  0  0  0  0  0  0  0  0
    5.5760   -2.6990   20.5650 O   0  0  0  0  0  0  0  0  0  0  0  0
    7.2890   -1.4930   21.3600 N   0  0  0  0  0  0  0  0  0  0  0  0
    7.7400   -2.5270   22.2810 C   0  0  0  0  0  0  0  0  0  0  0  0
    9.2320   -2.5110   22.4300 C   0  0  0  0  0  0  0  0  0  0  0  0
    9.6060   -1.1870   22.8400 O   0  0  0  0  0  0  0  0  0  0  0  0
   10.9300   -0.8310   22.8130 C   0  0  0  0  0  0  0  0  0  0  0  0
   11.1890    0.5010   23.1830 C   0  0  0  0  0  0  0  0  0  0  0  0
   10.0830    1.2330   23.5210 O   0  0  0  0  0  0  0  0  0  0  0  0
   10.2840    2.5090   24.1280 C   0  0  0  0  0  0  0  0  0  0  0  0
   11.9800   -1.6700   22.4640 C   0  0  0  0  0  0  0  0  0  0  0  0
   13.2780   -1.1820   22.4860 C   0  0  0  0  0  0  0  0  0  0  0  0
   13.5330    0.1230   22.8590 C   0  0  0  0  0  0  0  0  0  0  0  0
   12.4960    0.9730   23.2020 C   0  0  0  0  0  0  0  0  0  0  0  0
  2  1  2  0
  3  2  1  0
  4  2  1  0
  5  4  1  0
  6  5  2  0
  7  6  1  0
  8  7  1  0
  9  7  2  0
 10  9  1  0
 11 10  2  0
 11  5  1  0
 12  6  1  0
 12  3  2  0
 13 12  1  0
 14 13  2  0
 15 13  1  0
 16 15  1  0
 17 16  1  0
 18 17  1  0
 19 18  1  0
 20 19  2  0
 21 20  1  0
 22 21  1  0
 23 19  1  0
 24 23  2  0
 25 24  1  0
 26 25  2  0
 26 20  1  0
M  END
