
     RDKit          3D

 20 22  0  0  0  0  0  0  0  0999 V2000
   24.9130  -27.9700   20.0660 Cl  0  0  0  0  0  0  0  0  0  0  0  0
   24.4060  -27.2360   18.5750 C   0  0  0  0  0  0  0  0  0  0  0  0
   24.7980  -27.8110   17.3840 C   0  0  0  0  0  0  0  0  0  0  0  0
   24.4060  -27.2400   16.1860 C   0  0  0  0  0  0  0  0  0  0  0  0
   23.6260  -26.0950   16.2140 C   0  0  0  0  0  0  0  0  0  0  0  0
   23.1690  -25.3220   15.1630 N   0  0  0  0  0  0  0  0  0  0  0  0
   22.4630  -24.2510   15.6720 C   0  0  0  0  0  0  0  0  0  0  0  0
   21.9080  -23.1770   14.9710 C   0  0  0  0  0  0  0  0  0  0  0  0
   21.9260  -23.1760   13.4600 C   0  0  0  0  0  0  0  0  0  0  0  0
   23.6160  -26.1010   18.6240 C   0  0  0  0  0  0  0  0  0  0  0  0
   23.2130  -25.5140   17.4280 C   0  0  0  0  0  0  0  0  0  0  0  0
   22.4480  -24.3280   17.0760 C   0  0  0  0  0  0  0  0  0  0  0  0
   21.8130  -23.3190   17.7950 C   0  0  0  0  0  0  0  0  0  0  0  0
   21.2670  -22.2480   17.1130 C   0  0  0  0  0  0  0  0  0  0  0  0
   21.3260  -22.1400   15.7220 C   0  0  0  0  0  0  0  0  0  0  0  0
   20.7990  -20.8840   15.0360 C   0  0  1  0  0  0  0  0  0  0  0  0
   19.9480  -20.0340   15.9700 C   0  0  0  0  0  0  0  0  0  0  0  0
   21.9060  -20.0420   14.4260 C   0  0  0  0  0  0  0  0  0  0  0  0
   21.8680  -19.6740   13.2710 O   0  0  0  0  0  0  0  0  0  0  0  0
   22.8750  -19.7460   15.2500 O   0  0  0  0  0  0  0  0  0  0  0  0
  2  1  1  0
  3  2  2  0
  4  3  1  0
  5  4  2  0
  6  5  1  0
  7  6  1  0
  8  7  1  0
  9  8  1  0
 10  2  1  0
 11  5  1  0
 11 10  2  0
 12  7  2  0
 12 11  1  0
 13 12  1  0
 14 13  2  0
 15 14  1  0
 15  8  2  0
 16 15  1  0
 16 17  1  1
 18 16  1  0
 19 18  1  0
 20 18  2  0
M  END
