
     RDKit          3D

  5  4  0  0  0  0  0  0  0  0999 V2000
   10.1980   -5.7460   25.0910 N   0  0  0  0  0  0  0  0  0  0  0  0
    8.7530   -3.5010   23.3570 C   0  0  0  0  0  0  0  0  0  0  0  0
    8.1430   -4.7400   24.0130 C   0  0  0  0  0  0  0  0  0  0  0  0
    8.5190   -4.9830   26.4400 N   0  0  0  0  0  0  0  0  0  0  0  0
    9.0330   -5.1940   25.1710 C   0  0  0  0  0  0  0  0  0  0  0  0
  3  2  1  0
  5  1  1  0
  5  4  1  0
  5  3  1  0
M  END
$$$$
