
     RDKit          3D

 11 11  0  0  0  0  0  0  0  0999 V2000
   27.9800   46.8890   -8.9410 C   0  0  0  0  0  0  0  0  0  0  0  0
   28.4280   48.0240   -8.1520 N   0  0  0  0  0  0  0  0  0  0  0  0
   28.3460   49.2670   -8.6290 C   0  0  0  0  0  0  0  0  0  0  0  0
   28.5530   50.3970   -7.6660 C   0  0  0  0  0  0  0  0  0  0  0  0
   28.9790   50.1700   -6.3530 C   0  0  0  0  0  0  0  0  0  0  0  0
   29.1590   51.2130   -5.4960 C   0  0  0  0  0  0  0  0  0  0  0  0
   28.3310   51.6920   -8.0820 C   0  0  0  0  0  0  0  0  0  0  0  0
   28.5100   52.7200   -7.2210 N   0  0  0  0  0  0  0  0  0  0  0  0
   28.9160   52.5530   -5.9240 C   0  0  0  0  0  0  0  0  0  0  0  0
   29.0620   53.5730   -5.1980 O   0  0  0  0  0  0  0  0  0  0  0  0
   28.1140   49.4830   -9.8210 O   0  0  0  0  0  0  0  0  0  0  0  0
  2  1  1  0
  3  2  1  0
  4  3  1  0
  5  4  1  0
  6  5  2  0
  7  4  2  0
  8  7  1  0
  9  8  1  0
  9  6  1  0
 10  9  2  0
 11  3  2  0
M  END
