
     RDKit          3D

 18 19  0  0  0  0  0  0  0  0999 V2000
    6.3940   -5.0340   21.6520 N   0  0  0  0  0  0  0  0  0  0  0  0
    7.6500   -3.4480   20.2200 C   0  0  0  0  0  0  0  0  0  0  0  0
    5.7140   -4.6770   19.5460 O   0  0  0  0  0  0  0  0  0  0  0  0
    6.5180   -4.4430   20.4430 C   0  0  0  0  0  0  0  0  0  0  0  0
    5.3390   -5.2380   24.2640 N   0  0  0  0  0  0  0  0  0  0  0  0
    3.8480   -6.2830   25.9310 O   0  0  0  0  0  0  0  0  0  0  0  0
    3.8720   -2.1710   25.9690 S   0  0  0  0  0  0  0  0  0  0  0  0
    7.2360   -4.7740   22.8200 C   0  0  0  0  0  0  0  0  0  0  0  0
    5.5900   -4.6900   26.6580 O   0  0  0  0  0  0  0  0  0  0  0  0
    6.3890   -4.2560   23.9510 C   0  0  0  0  0  0  0  0  0  0  0  0
    4.4930   -5.5450   23.0960 C   0  0  0  0  0  0  0  0  0  0  0  0
    5.3610   -6.0240   21.9590 C   0  0  0  0  0  0  0  0  0  0  0  0
    3.4370   -3.7840   25.5900 C   0  0  0  0  0  0  0  0  0  0  0  0
    2.1280   -3.8960   25.1920 C   0  0  0  0  0  0  0  0  0  0  0  0
    1.4780   -2.6370   25.2420 C   0  0  0  0  0  0  0  0  0  0  0  0
    2.2650   -1.6520   25.7360 C   0  0  0  0  0  0  0  0  0  0  0  0
    4.5950   -5.0860   25.7110 S   0  0  0  0  0  0  0  0  0  0  0  0
    8.3300   -3.3670   18.5360 S   0  0  0  0  0  0  0  0  0  0  0  0
  4  3  2  0
  4  2  1  0
  4  1  1  0
  8  1  1  0
 10  5  1  0
 10  8  1  0
 11  5  1  0
 12 11  1  0
 12  1  1  0
 13  7  1  0
 14 13  2  0
 15 14  1  0
 16 15  2  0
 16  7  1  0
 17  6  2  0
 17 13  1  0
 17  5  1  0
 17  9  2  0
  2 18  1  0
M  END
