
     RDKit          3D

 20 22  0  0  0  0  0  0  0  0999 V2000
    9.0300    0.8410   21.0620 O   0  0  0  0  0  0  0  0  0  0  0  0
    8.5340   -0.2330   21.3800 C   0  0  0  0  0  0  0  0  0  0  0  0
    8.9990   -0.9910   22.6050 C   0  0  0  0  0  0  0  0  0  0  0  0
   10.4740   -0.7610   22.8270 C   0  0  0  0  0  0  0  0  0  0  0  0
   10.9180    0.1430   23.7820 C   0  0  0  0  0  0  0  0  0  0  0  0
   12.2650    0.4360   23.9090 C   0  0  0  0  0  0  0  0  0  0  0  0
   13.1930   -0.1770   23.0830 C   0  0  0  0  0  0  0  0  0  0  0  0
   11.4080   -1.3950   22.0160 C   0  0  0  0  0  0  0  0  0  0  0  0
   12.7470   -1.0940   22.1540 C   0  0  0  0  0  0  0  0  0  0  0  0
   13.8960   -1.8790   21.1100 Cl  0  0  0  0  0  0  0  0  0  0  0  0
    7.5290   -0.8120   20.6980 N   0  0  0  0  0  0  0  0  0  0  0  0
    6.7640   -0.1480   19.7120 C   0  0  0  0  0  0  0  0  0  0  0  0
    5.6200    0.5760   20.0810 C   0  0  0  0  0  0  0  0  0  0  0  0
    5.1640    0.6900   21.5280 C   0  0  2  0  0  0  0  0  0  0  0  0
    4.0460    1.6290   21.9040 C   0  0  0  0  0  0  0  0  0  0  0  0
    5.4400    1.9570   22.2970 C   0  0  0  0  0  0  0  0  0  0  0  0
    4.9240    1.2490   19.0820 C   0  0  0  0  0  0  0  0  0  0  0  0
    5.3890    1.1980   17.7820 C   0  0  0  0  0  0  0  0  0  0  0  0
    6.4830    0.5200   17.4140 N   0  0  0  0  0  0  0  0  0  0  0  0
    7.1430   -0.1430   18.3690 C   0  0  0  0  0  0  0  0  0  0  0  0
  2  1  2  0
  3  2  1  0
  4  3  1  0
  5  4  2  0
  6  5  1  0
  7  6  2  0
  8  4  1  0
  9  8  2  0
  9  7  1  0
 10  9  1  0
 11  2  1  0
 12 11  1  0
 13 12  1  0
 14 13  1  6
 15 14  1  0
 16 14  1  0
 16 15  1  0
 17 13  2  0
 18 17  1  0
 19 18  2  0
 20 19  1  0
 20 12  2  0
M  END
