
     RDKit          3D

 11 11  0  0  0  0  0  0  0  0999 V2000
   10.1780   -0.7290   22.5700 C   0  0  0  0  0  0  0  0  0  0  0  0
    9.2820   -0.1030   21.5030 C   0  0  0  0  0  0  0  0  0  0  0  0
    7.1790   -0.1530   20.1080 C   0  0  0  0  0  0  0  0  0  0  0  0
    7.5510   -0.2150   18.7710 C   0  0  0  0  0  0  0  0  0  0  0  0
    5.6690    0.9130   18.1140 C   0  0  0  0  0  0  0  0  0  0  0  0
    5.2170    1.0310   19.4220 C   0  0  0  0  0  0  0  0  0  0  0  0
    5.9870    0.4820   20.4470 C   0  0  0  0  0  0  0  0  0  0  0  0
    5.5470    0.5830   21.9050 C   0  0  0  0  0  0  0  0  0  0  0  0
    8.0330   -0.7430   21.1270 N   0  0  0  0  0  0  0  0  0  0  0  0
    6.7980    0.3080   17.8220 N   0  0  0  0  0  0  0  0  0  0  0  0
    9.6090    0.9110   20.9910 O   0  0  0  0  0  0  0  0  0  0  0  0
  2  1  1  0
  4  3  2  0
  6  5  1  0
  7  6  2  0
  7  3  1  0
  8  7  1  0
  9  3  1  0
  9  2  1  0
 10  5  2  0
 10  4  1  0
 11  2  2  0
M  END
