
     RDKit          3D

 25 27  0  0  0  0  0  0  0  0999 V2000
   11.2930    6.1710   22.8250 C   0  0  0  0  0  0  0  0  0  0  0  0
   12.5650    6.7350   22.9900 C   0  0  0  0  0  0  0  0  0  0  0  0
   13.6440    5.9320   23.3780 C   0  0  0  0  0  0  0  0  0  0  0  0
   13.4470    4.5640   23.6030 C   0  0  0  0  0  0  0  0  0  0  0  0
   12.1720    3.9990   23.4430 C   0  0  0  0  0  0  0  0  0  0  0  0
   11.0930    4.7990   23.0550 C   0  0  0  0  0  0  0  0  0  0  0  0
    9.7840    4.2210   22.8750 C   0  0  0  0  0  0  0  0  0  0  0  0
    8.6680    3.6420   22.7450 C   0  0  0  0  0  0  0  0  0  0  0  0
    7.3440    3.1760   22.4170 C   0  0  0  0  0  0  0  0  0  0  0  0
    7.2020    2.2620   21.3590 O   0  0  0  0  0  0  0  0  0  0  0  0
    6.1440    3.4860   22.9110 C   0  0  0  0  0  0  0  0  0  0  0  0
    5.2110    2.7720   22.2550 C   0  0  0  0  0  0  0  0  0  0  0  0
    5.8240    2.0130   21.3500 C   0  0  1  0  0  0  0  0  0  0  0  0
    5.1580    1.0450   20.3690 C   0  0  0  0  0  0  0  0  0  0  0  0
    3.9310    1.0150   20.2510 O   0  0  0  0  0  0  0  0  0  0  0  0
    6.1230   -0.0620   19.3640 S   0  0  0  0  0  0  0  0  0  0  0  0
    5.9420   -1.4990   20.3590 C   0  0  0  0  0  0  0  0  0  0  0  0
    6.1650   -2.7380   19.9590 N   0  0  0  0  0  0  0  0  0  0  0  0
    5.9460   -3.4840   21.0430 C   0  0  0  0  0  0  0  0  0  0  0  0
    6.1570   -4.9950   21.0740 C   0  0  1  0  0  0  0  0  0  0  0  0
    5.4510   -5.6400   22.0210 F   0  0  0  0  0  0  0  0  0  0  0  0
    5.7810   -5.4530   19.8840 F   0  0  0  0  0  0  0  0  0  0  0  0
    7.4750   -5.2320   21.2640 F   0  0  0  0  0  0  0  0  0  0  0  0
    5.5770   -2.6930   22.0460 N   0  0  0  0  0  0  0  0  0  0  0  0
    5.5720   -1.5210   21.6380 N   0  0  0  0  0  0  0  0  0  0  0  0
  2  1  1  0
  3  2  1  0
  4  3  1  0
  5  4  1  0
  6  5  1  0
  6  1  1  0
  7  6  1  0
  8  7  1  0
  9  8  1  0
 10  9  1  0
 11  9  1  0
 12 11  1  0
 13 12  1  0
 13 10  1  0
 13 14  1  6
 15 14  1  0
 16 14  1  0
 17 16  1  0
 18 17  1  0
 19 18  1  0
 20 19  1  0
 20 21  1  1
 22 20  1  0
 23 20  1  0
 24 19  1  0
 25 17  1  0
 25 24  1  0
M  END
